Exemplos/ULAU01/trafosMT_ULAU01.dss
New transformer.395189 phases=3 xhl=3.7 %r=1.52 windings=2 %loadloss=1.5222222222222221 %noloadloss=0.37777777777777777
~ wdg=1 bus=181396697.1.2.3 kv=13.8 kva=45 tap=1 conn=delta
~ wdg=2 bus=1797968.1.2.3.4 kv=0.22 kva=45 tap=1 conn=wye
New Reactor.TF395189 phases=1 bus1=1797968.4 R=15 X=0 basefreq=60

New transformer.395301 phases=3 xhl=3.7 %r=1.52 windings=2 %loadloss=1.5222222222222221 %noloadloss=0.37777777777777777
~ wdg=1 bus=149837189.1.2.3 kv=13.8 kva=45 tap=1 conn=delta
~ wdg=2 bus=1798192.1.2.3.4 kv=0.22 kva=45 tap=1 conn=wye
New Reactor.TF395301 phases=1 bus1=1798192.4 R=15 X=0 basefreq=60

New transformer.395308 phases=1 xhl=2.058 xht=2.058 xlt= 1.646 %r=1.42 windings=3 %loadloss=1.42 %noloadloss=0.32
~ wdg=1 bus=158460356.1 kv=7.96 kva=25 tap=1 conn=Wye
~ wdg=2 bus=1798206.1.4 kv=0.24 kva=25 tap=1 conn=wye
~ wdg=3 bus=1798206.4.2 kv=0.24 kva=25 tap=1 conn=wye
New Reactor.TF395308 phases=1 bus1=1798206.4 R=15 X=0 basefreq=60

New transformer.395420 phases=1 xhl=1.625 xht=1.625 xlt= 1.3 %r=1.9 windings=3 %loadloss=1.9 %noloadloss=0.6
~ wdg=1 bus=158460359.1 kv=7.96 kva=5 tap=1 conn=Wye
~ wdg=2 bus=1798430.1.4 kv=0.24 kva=5 tap=1 conn=wye
~ wdg=3 bus=1798430.4.2 kv=0.24 kva=5 tap=1 conn=wye
New Reactor.TF395420 phases=1 bus1=1798430.4 R=15 X=0 basefreq=60

New transformer.395441 phases=1 xhl=1.735 xht=1.735 xlt= 1.388 %r=1.8 windings=3 %loadloss=1.8 %noloadloss=0.45
~ wdg=1 bus=149833108.1 kv=7.96 kva=10 tap=1 conn=Wye
~ wdg=2 bus=1798472.1.4 kv=0.24 kva=10 tap=1 conn=wye
~ wdg=3 bus=1798472.4.2 kv=0.24 kva=10 tap=1 conn=wye
New Reactor.TF395441 phases=1 bus1=1798472.4 R=15 X=0 basefreq=60

New transformer.396344 phases=1 xhl=2.139 xht=2.139 xlt= 1.712 %r=1.293 windings=3 %loadloss=1.3108108108108107 %noloadloss=0.32432432432432434
~ wdg=1 bus=126416581.1 kv=7.96 kva=37 tap=1 conn=Wye
~ wdg=2 bus=1802392.1.4 kv=0.24 kva=37 tap=1 conn=wye
~ wdg=3 bus=1802392.4.2 kv=0.24 kva=37 tap=1 conn=wye
New Reactor.TF396344 phases=1 bus1=1802392.4 R=15 X=0 basefreq=60

New transformer.395413 phases=1 xhl=1.921 xht=1.921 xlt= 1.537 %r=1.6 windings=3 %loadloss=1.6 %noloadloss=0.4
~ wdg=1 bus=176814577.1 kv=7.96 kva=15 tap=1 conn=Wye
~ wdg=2 bus=1798416.1.4 kv=0.24 kva=15 tap=1 conn=wye
~ wdg=3 bus=1798416.4.2 kv=0.24 kva=15 tap=1 conn=wye
New Reactor.TF395413 phases=1 bus1=1798416.4 R=15 X=0 basefreq=60

New transformer.396540 phases=1 xhl=2.058 xht=2.058 xlt= 1.646 %r=1.42 windings=3 %loadloss=1.42 %noloadloss=0.32
~ wdg=1 bus=167503571.1 kv=7.96 kva=25 tap=1 conn=Wye
~ wdg=2 bus=1803631.1.4 kv=0.24 kva=25 tap=1 conn=wye
~ wdg=3 bus=1803631.4.2 kv=0.24 kva=25 tap=1 conn=wye
New Reactor.TF396540 phases=1 bus1=1803631.4 R=15 X=0 basefreq=60

New transformer.397555 phases=1 xhl=1.921 xht=1.921 xlt= 1.537 %r=1.6 windings=3 %loadloss=1.6 %noloadloss=0.4
~ wdg=1 bus=157400385.1 kv=7.96 kva=15 tap=1 conn=Wye
~ wdg=2 bus=1808860.1.4 kv=0.24 kva=15 tap=1 conn=wye
~ wdg=3 bus=1808860.4.2 kv=0.24 kva=15 tap=1 conn=wye
New Reactor.TF397555 phases=1 bus1=1808860.4 R=15 X=0 basefreq=60

New transformer.397240 phases=1 xhl=1.735 xht=1.735 xlt= 1.388 %r=1.8 windings=3 %loadloss=1.8 %noloadloss=0.45
~ wdg=1 bus=180124517.1 kv=7.96 kva=10 tap=1 conn=Wye
~ wdg=2 bus=1807271.1.4 kv=0.24 kva=10 tap=1 conn=wye
~ wdg=3 bus=1807271.4.2 kv=0.24 kva=10 tap=1 conn=wye
New Reactor.TF397240 phases=1 bus1=1807271.4 R=15 X=0 basefreq=60

New transformer.395378 phases=1 xhl=2.139 xht=2.139 xlt= 1.712 %r=1.293 windings=3 %loadloss=1.3108108108108107 %noloadloss=0.32432432432432434
~ wdg=1 bus=158460358.1 kv=7.96 kva=37 tap=1 conn=Wye
~ wdg=2 bus=1798346.1.4 kv=0.24 kva=37 tap=1 conn=wye
~ wdg=3 bus=1798346.4.2 kv=0.24 kva=37 tap=1 conn=wye
New Reactor.TF395378 phases=1 bus1=1798346.4 R=15 X=0 basefreq=60

New transformer.397429 phases=1 xhl=1.921 xht=1.921 xlt= 1.537 %r=1.6 windings=3 %loadloss=1.6 %noloadloss=0.4
~ wdg=1 bus=180124523.1 kv=7.96 kva=15 tap=1 conn=Wye
~ wdg=2 bus=1808286.1.4 kv=0.24 kva=15 tap=1 conn=wye
~ wdg=3 bus=1808286.4.2 kv=0.24 kva=15 tap=1 conn=wye
New Reactor.TF397429 phases=1 bus1=1808286.4 R=15 X=0 basefreq=60

New transformer.397044 phases=1 xhl=1.921 xht=1.921 xlt= 1.537 %r=1.6 windings=3 %loadloss=1.6 %noloadloss=0.4
~ wdg=1 bus=180124521.1 kv=7.96 kva=15 tap=1 conn=Wye
~ wdg=2 bus=1806669.1.4 kv=0.24 kva=15 tap=1 conn=wye
~ wdg=3 bus=1806669.4.2 kv=0.24 kva=15 tap=1 conn=wye
New Reactor.TF397044 phases=1 bus1=1806669.4 R=15 X=0 basefreq=60

New transformer.397506 phases=1 xhl=1.735 xht=1.735 xlt= 1.388 %r=1.8 windings=3 %loadloss=1.8 %noloadloss=0.45
~ wdg=1 bus=157400384.1 kv=7.96 kva=10 tap=1 conn=Wye
~ wdg=2 bus=1808734.1.4 kv=0.24 kva=10 tap=1 conn=wye
~ wdg=3 bus=1808734.4.2 kv=0.24 kva=10 tap=1 conn=wye
New Reactor.TF397506 phases=1 bus1=1808734.4 R=15 X=0 basefreq=60

New transformer.397527 phases=1 xhl=1.921 xht=1.921 xlt= 1.537 %r=1.6 windings=3 %loadloss=1.6 %noloadloss=0.4
~ wdg=1 bus=180124525.1 kv=7.96 kva=15 tap=1 conn=Wye
~ wdg=2 bus=1808776.1.4 kv=0.24 kva=15 tap=1 conn=wye
~ wdg=3 bus=1808776.4.2 kv=0.24 kva=15 tap=1 conn=wye
New Reactor.TF397527 phases=1 bus1=1808776.4 R=15 X=0 basefreq=60

New transformer.396953 phases=1 xhl=1.735 xht=1.735 xlt= 1.388 %r=1.8 windings=3 %loadloss=1.8 %noloadloss=0.45
~ wdg=1 bus=178694087.1 kv=7.96 kva=10 tap=1 conn=Wye
~ wdg=2 bus=1806487.1.4 kv=0.24 kva=10 tap=1 conn=wye
~ wdg=3 bus=1806487.4.2 kv=0.24 kva=10 tap=1 conn=wye
New Reactor.TF396953 phases=1 bus1=1806487.4 R=15 X=0 basefreq=60

New transformer.397121 phases=1 xhl=2.139 xht=2.139 xlt= 1.712 %r=1.293 windings=3 %loadloss=1.3108108108108107 %noloadloss=0.32432432432432434
~ wdg=1 bus=180124519.1 kv=7.96 kva=37 tap=1 conn=Wye
~ wdg=2 bus=1806823.1.4 kv=0.24 kva=37 tap=1 conn=wye
~ wdg=3 bus=1806823.4.2 kv=0.24 kva=37 tap=1 conn=wye
New Reactor.TF397121 phases=1 bus1=1806823.4 R=15 X=0 basefreq=60

New transformer.394503 phases=1 xhl=1.921 xht=1.921 xlt= 1.537 %r=1.6 windings=3 %loadloss=1.6 %noloadloss=0.4
~ wdg=1 bus=139961077.1 kv=7.96 kva=15 tap=1 conn=Wye
~ wdg=2 bus=1795469.1.4 kv=0.24 kva=15 tap=1 conn=wye
~ wdg=3 bus=1795469.4.2 kv=0.24 kva=15 tap=1 conn=wye
New Reactor.TF394503 phases=1 bus1=1795469.4 R=15 X=0 basefreq=60

New transformer.397443 phases=1 xhl=1.735 xht=1.735 xlt= 1.388 %r=1.8 windings=3 %loadloss=1.8 %noloadloss=0.45
~ wdg=1 bus=157400389.1 kv=7.96 kva=10 tap=1 conn=Wye
~ wdg=2 bus=1808342.1.4 kv=0.24 kva=10 tap=1 conn=wye
~ wdg=3 bus=1808342.4.2 kv=0.24 kva=10 tap=1 conn=wye
New Reactor.TF397443 phases=1 bus1=1808342.4 R=15 X=0 basefreq=60

New transformer.396582 phases=1 xhl=1.921 xht=1.921 xlt= 1.537 %r=1.6 windings=3 %loadloss=1.6 %noloadloss=0.4
~ wdg=1 bus=126416560.1 kv=7.96 kva=15 tap=1 conn=Wye
~ wdg=2 bus=1803876.1.4 kv=0.24 kva=15 tap=1 conn=wye
~ wdg=3 bus=1803876.4.2 kv=0.24 kva=15 tap=1 conn=wye
New Reactor.TF396582 phases=1 bus1=1803876.4 R=15 X=0 basefreq=60

New transformer.394559 phases=1 xhl=1.735 xht=1.735 xlt= 1.388 %r=1.8 windings=3 %loadloss=1.8 %noloadloss=0.45
~ wdg=1 bus=149837344.1 kv=7.96 kva=10 tap=1 conn=Wye
~ wdg=2 bus=1795637.1.4 kv=0.24 kva=10 tap=1 conn=wye
~ wdg=3 bus=1795637.4.2 kv=0.24 kva=10 tap=1 conn=wye
New Reactor.TF394559 phases=1 bus1=1795637.4 R=15 X=0 basefreq=60

New transformer.394860 phases=1 xhl=1.921 xht=1.921 xlt= 1.537 %r=1.6 windings=3 %loadloss=1.6 %noloadloss=0.4
~ wdg=1 bus=182113300.1 kv=7.96 kva=15 tap=1 conn=Wye
~ wdg=2 bus=1796540.1.4 kv=0.24 kva=15 tap=1 conn=wye
~ wdg=3 bus=1796540.4.2 kv=0.24 kva=15 tap=1 conn=wye
New Reactor.TF394860 phases=1 bus1=1796540.4 R=15 X=0 basefreq=60

New transformer.397786 phases=1 xhl=1.735 xht=1.735 xlt= 1.388 %r=1.8 windings=3 %loadloss=1.8 %noloadloss=0.45
~ wdg=1 bus=170717854.1 kv=7.96 kva=10 tap=1 conn=Wye
~ wdg=2 bus=1810386.1.4 kv=0.24 kva=10 tap=1 conn=wye
~ wdg=3 bus=1810386.4.2 kv=0.24 kva=10 tap=1 conn=wye
New Reactor.TF397786 phases=1 bus1=1810386.4 R=15 X=0 basefreq=60

New transformer.392956 phases=1 xhl=1.735 xht=1.735 xlt= 1.388 %r=1.8 windings=3 %loadloss=1.8 %noloadloss=0.45
~ wdg=1 bus=126414859.1 kv=7.96 kva=10 tap=1 conn=Wye
~ wdg=2 bus=1792375.1.4 kv=0.24 kva=10 tap=1 conn=wye
~ wdg=3 bus=1792375.4.2 kv=0.24 kva=10 tap=1 conn=wye
New Reactor.TF392956 phases=1 bus1=1792375.4 R=15 X=0 basefreq=60

New transformer.394755 phases=1 xhl=1.921 xht=1.921 xlt= 1.537 %r=1.6 windings=3 %loadloss=1.6 %noloadloss=0.4
~ wdg=1 bus=182113308.1 kv=7.96 kva=15 tap=1 conn=Wye
~ wdg=2 bus=1796337.1.4 kv=0.24 kva=15 tap=1 conn=wye
~ wdg=3 bus=1796337.4.2 kv=0.24 kva=15 tap=1 conn=wye
New Reactor.TF394755 phases=1 bus1=1796337.4 R=15 X=0 basefreq=60

New transformer.394741 phases=1 xhl=2.139 xht=2.139 xlt= 1.712 %r=1.293 windings=3 %loadloss=1.3108108108108107 %noloadloss=0.32432432432432434
~ wdg=1 bus=149837341.1 kv=7.96 kva=37 tap=1 conn=Wye
~ wdg=2 bus=1796309.1.4 kv=0.24 kva=37 tap=1 conn=wye
~ wdg=3 bus=1796309.4.2 kv=0.24 kva=37 tap=1 conn=wye
New Reactor.TF394741 phases=1 bus1=1796309.4 R=15 X=0 basefreq=60

New transformer.394720 phases=1 xhl=1.921 xht=1.921 xlt= 1.537 %r=1.6 windings=3 %loadloss=1.6 %noloadloss=0.4
~ wdg=1 bus=149837343.1 kv=7.96 kva=15 tap=1 conn=Wye
~ wdg=2 bus=1796267.1.4 kv=0.24 kva=15 tap=1 conn=wye
~ wdg=3 bus=1796267.4.2 kv=0.24 kva=15 tap=1 conn=wye
New Reactor.TF394720 phases=1 bus1=1796267.4 R=15 X=0 basefreq=60

New transformer.395007 phases=1 xhl=1.921 xht=1.921 xlt= 1.537 %r=1.6 windings=3 %loadloss=1.6 %noloadloss=0.4
~ wdg=1 bus=149837199.1 kv=7.96 kva=15 tap=1 conn=Wye
~ wdg=2 bus=1797520.1.4 kv=0.24 kva=15 tap=1 conn=wye
~ wdg=3 bus=1797520.4.2 kv=0.24 kva=15 tap=1 conn=wye
New Reactor.TF395007 phases=1 bus1=1797520.4 R=15 X=0 basefreq=60

New transformer.397639 phases=1 xhl=1.735 xht=1.735 xlt= 1.388 %r=1.8 windings=3 %loadloss=1.8 %noloadloss=0.45
~ wdg=1 bus=180950363.1 kv=7.96 kva=10 tap=1 conn=Wye
~ wdg=2 bus=1809567.1.4 kv=0.24 kva=10 tap=1 conn=wye
~ wdg=3 bus=1809567.4.2 kv=0.24 kva=10 tap=1 conn=wye
New Reactor.TF397639 phases=1 bus1=1809567.4 R=15 X=0 basefreq=60

New transformer.394468 phases=1 xhl=2.139 xht=2.139 xlt= 1.712 %r=1.293 windings=3 %loadloss=1.3108108108108107 %noloadloss=0.32432432432432434
~ wdg=1 bus=139961084.1 kv=7.96 kva=37 tap=1 conn=Wye
~ wdg=2 bus=1795399.1.4 kv=0.24 kva=37 tap=1 conn=wye
~ wdg=3 bus=1795399.4.2 kv=0.24 kva=37 tap=1 conn=wye
New Reactor.TF394468 phases=1 bus1=1795399.4 R=15 X=0 basefreq=60

New transformer.686550 phases=1 xhl=1.921 xht=1.921 xlt= 1.537 %r=1.6 windings=3 %loadloss=1.6 %noloadloss=0.4
~ wdg=1 bus=176347005.1 kv=7.96 kva=15 tap=1 conn=Wye
~ wdg=2 bus=5508108.1.4 kv=0.24 kva=15 tap=1 conn=wye
~ wdg=3 bus=5508108.4.2 kv=0.24 kva=15 tap=1 conn=wye
New Reactor.TF686550 phases=1 bus1=5508108.4 R=15 X=0 basefreq=60

New transformer.433192 phases=1 xhl=2.058 xht=2.058 xlt= 1.646 %r=1.42 windings=3 %loadloss=1.42 %noloadloss=0.32
~ wdg=1 bus=126416413.1 kv=7.96 kva=25 tap=1 conn=Wye
~ wdg=2 bus=2265225.1.4 kv=0.24 kva=25 tap=1 conn=wye
~ wdg=3 bus=2265225.4.2 kv=0.24 kva=25 tap=1 conn=wye
New Reactor.TF433192 phases=1 bus1=2265225.4 R=15 X=0 basefreq=60

New transformer.433178 phases=1 xhl=2.139 xht=2.139 xlt= 1.712 %r=1.293 windings=3 %loadloss=1.3108108108108107 %noloadloss=0.32432432432432434
~ wdg=1 bus=126416434.1 kv=7.96 kva=37 tap=1 conn=Wye
~ wdg=2 bus=2265120.1.4 kv=0.24 kva=37 tap=1 conn=wye
~ wdg=3 bus=2265120.4.2 kv=0.24 kva=37 tap=1 conn=wye
New Reactor.TF433178 phases=1 bus1=2265120.4 R=15 X=0 basefreq=60

New transformer.433199 phases=1 xhl=2.058 xht=2.058 xlt= 1.646 %r=1.42 windings=3 %loadloss=1.42 %noloadloss=0.32
~ wdg=1 bus=126416448.1 kv=7.96 kva=25 tap=1 conn=Wye
~ wdg=2 bus=2265253.1.4 kv=0.24 kva=25 tap=1 conn=wye
~ wdg=3 bus=2265253.4.2 kv=0.24 kva=25 tap=1 conn=wye
New Reactor.TF433199 phases=1 bus1=2265253.4 R=15 X=0 basefreq=60

New transformer.433171 phases=1 xhl=2.058 xht=2.058 xlt= 1.646 %r=1.42 windings=3 %loadloss=1.42 %noloadloss=0.32
~ wdg=1 bus=126416469.1 kv=7.96 kva=25 tap=1 conn=Wye
~ wdg=2 bus=2265078.1.4 kv=0.24 kva=25 tap=1 conn=wye
~ wdg=3 bus=2265078.4.2 kv=0.24 kva=25 tap=1 conn=wye
New Reactor.TF433171 phases=1 bus1=2265078.4 R=15 X=0 basefreq=60

New transformer.435964 phases=1 xhl=2.058 xht=2.058 xlt= 1.646 %r=1.42 windings=3 %loadloss=1.42 %noloadloss=0.32
~ wdg=1 bus=178277086.1 kv=7.96 kva=25 tap=1 conn=Wye
~ wdg=2 bus=2281857.1.4 kv=0.24 kva=25 tap=1 conn=wye
~ wdg=3 bus=2281857.4.2 kv=0.24 kva=25 tap=1 conn=wye
New Reactor.TF435964 phases=1 bus1=2281857.4 R=15 X=0 basefreq=60

New transformer.433185 phases=1 xhl=2.058 xht=2.058 xlt= 1.646 %r=1.42 windings=3 %loadloss=1.42 %noloadloss=0.32
~ wdg=1 bus=126416420.1 kv=7.96 kva=25 tap=1 conn=Wye
~ wdg=2 bus=2265162.1.4 kv=0.24 kva=25 tap=1 conn=wye
~ wdg=3 bus=2265162.4.2 kv=0.24 kva=25 tap=1 conn=wye
New Reactor.TF433185 phases=1 bus1=2265162.4 R=15 X=0 basefreq=60

New transformer.395098 phases=1 xhl=1.735 xht=1.735 xlt= 1.388 %r=1.8 windings=3 %loadloss=1.8 %noloadloss=0.45
~ wdg=1 bus=180882339.2 kv=7.96 kva=10 tap=1 conn=Wye
~ wdg=2 bus=1797786.1.4 kv=0.24 kva=10 tap=1 conn=wye
~ wdg=3 bus=1797786.4.2 kv=0.24 kva=10 tap=1 conn=wye
New Reactor.TF395098 phases=1 bus1=1797786.4 R=15 X=0 basefreq=60

New transformer.395553 phases=1 xhl=1.921 xht=1.921 xlt= 1.537 %r=1.6 windings=3 %loadloss=1.6 %noloadloss=0.4
~ wdg=1 bus=126413396.2 kv=7.96 kva=15 tap=1 conn=Wye
~ wdg=2 bus=1798696.1.4 kv=0.24 kva=15 tap=1 conn=wye
~ wdg=3 bus=1798696.4.2 kv=0.24 kva=15 tap=1 conn=wye
New Reactor.TF395553 phases=1 bus1=1798696.4 R=15 X=0 basefreq=60

New transformer.395798 phases=1 xhl=1.735 xht=1.735 xlt= 1.388 %r=1.8 windings=3 %loadloss=1.8 %noloadloss=0.45
~ wdg=1 bus=172264756.2 kv=7.96 kva=10 tap=1 conn=Wye
~ wdg=2 bus=1799375.1.4 kv=0.24 kva=10 tap=1 conn=wye
~ wdg=3 bus=1799375.4.2 kv=0.24 kva=10 tap=1 conn=wye
New Reactor.TF395798 phases=1 bus1=1799375.4 R=15 X=0 basefreq=60

New transformer.395322 phases=1 xhl=1.735 xht=1.735 xlt= 1.388 %r=1.8 windings=3 %loadloss=1.8 %noloadloss=0.45
~ wdg=1 bus=159082687.2 kv=7.96 kva=10 tap=1 conn=Wye
~ wdg=2 bus=1798234.1.4 kv=0.24 kva=10 tap=1 conn=wye
~ wdg=3 bus=1798234.4.2 kv=0.24 kva=10 tap=1 conn=wye
New Reactor.TF395322 phases=1 bus1=1798234.4 R=15 X=0 basefreq=60

New transformer.395616 phases=1 xhl=1.735 xht=1.735 xlt= 1.388 %r=1.8 windings=3 %loadloss=1.8 %noloadloss=0.45
~ wdg=1 bus=159082689.2 kv=7.96 kva=10 tap=1 conn=Wye
~ wdg=2 bus=1798822.1.4 kv=0.24 kva=10 tap=1 conn=wye
~ wdg=3 bus=1798822.4.2 kv=0.24 kva=10 tap=1 conn=wye
New Reactor.TF395616 phases=1 bus1=1798822.4 R=15 X=0 basefreq=60

New transformer.396379 phases=1 xhl=1.735 xht=1.735 xlt= 1.388 %r=1.8 windings=3 %loadloss=1.8 %noloadloss=0.45
~ wdg=1 bus=159082693.2 kv=7.96 kva=10 tap=1 conn=Wye
~ wdg=2 bus=1802805.1.4 kv=0.24 kva=10 tap=1 conn=wye
~ wdg=3 bus=1802805.4.2 kv=0.24 kva=10 tap=1 conn=wye
New Reactor.TF396379 phases=1 bus1=1802805.4 R=15 X=0 basefreq=60

New transformer.396603 phases=1 xhl=1.735 xht=1.735 xlt= 1.388 %r=1.8 windings=3 %loadloss=1.8 %noloadloss=0.45
~ wdg=1 bus=126413424.2 kv=7.96 kva=10 tap=1 conn=Wye
~ wdg=2 bus=1803988.1.4 kv=0.24 kva=10 tap=1 conn=wye
~ wdg=3 bus=1803988.4.2 kv=0.24 kva=10 tap=1 conn=wye
New Reactor.TF396603 phases=1 bus1=1803988.4 R=15 X=0 basefreq=60

New transformer.396267 phases=1 xhl=1.735 xht=1.735 xlt= 1.388 %r=1.8 windings=3 %loadloss=1.8 %noloadloss=0.45
~ wdg=1 bus=126413431.2 kv=7.96 kva=10 tap=1 conn=Wye
~ wdg=2 bus=1802007.1.4 kv=0.24 kva=10 tap=1 conn=wye
~ wdg=3 bus=1802007.4.2 kv=0.24 kva=10 tap=1 conn=wye
New Reactor.TF396267 phases=1 bus1=1802007.4 R=15 X=0 basefreq=60

New transformer.395105 phases=1 xhl=1.921 xht=1.921 xlt= 1.537 %r=1.6 windings=3 %loadloss=1.6 %noloadloss=0.4
~ wdg=1 bus=149837197.2 kv=7.96 kva=15 tap=1 conn=Wye
~ wdg=2 bus=1797800.1.4 kv=0.24 kva=15 tap=1 conn=wye
~ wdg=3 bus=1797800.4.2 kv=0.24 kva=15 tap=1 conn=wye
New Reactor.TF395105 phases=1 bus1=1797800.4 R=15 X=0 basefreq=60

New transformer.395315 phases=1 xhl=1.735 xht=1.735 xlt= 1.388 %r=1.8 windings=3 %loadloss=1.8 %noloadloss=0.45
~ wdg=1 bus=170310093.2 kv=7.96 kva=10 tap=1 conn=Wye
~ wdg=2 bus=1798220.1.4 kv=0.24 kva=10 tap=1 conn=wye
~ wdg=3 bus=1798220.4.2 kv=0.24 kva=10 tap=1 conn=wye
New Reactor.TF395315 phases=1 bus1=1798220.4 R=15 X=0 basefreq=60

New transformer.393264 phases=1 xhl=1.921 xht=1.921 xlt= 1.537 %r=1.6 windings=3 %loadloss=1.6 %noloadloss=0.4
~ wdg=1 bus=169506538.2 kv=7.96 kva=15 tap=1 conn=Wye
~ wdg=2 bus=1792991.1.4 kv=0.24 kva=15 tap=1 conn=wye
~ wdg=3 bus=1792991.4.2 kv=0.24 kva=15 tap=1 conn=wye
New Reactor.TF393264 phases=1 bus1=1792991.4 R=15 X=0 basefreq=60

New transformer.394097 phases=1 xhl=1.735 xht=1.735 xlt= 1.388 %r=1.8 windings=3 %loadloss=1.8 %noloadloss=0.45
~ wdg=1 bus=126414761.2 kv=7.96 kva=10 tap=1 conn=Wye
~ wdg=2 bus=1794657.1.4 kv=0.24 kva=10 tap=1 conn=wye
~ wdg=3 bus=1794657.4.2 kv=0.24 kva=10 tap=1 conn=wye
New Reactor.TF394097 phases=1 bus1=1794657.4 R=15 X=0 basefreq=60

New transformer.393327 phases=1 xhl=1.921 xht=1.921 xlt= 1.537 %r=1.6 windings=3 %loadloss=1.6 %noloadloss=0.4
~ wdg=1 bus=169506533.2 kv=7.96 kva=15 tap=1 conn=Wye
~ wdg=2 bus=1793117.1.4 kv=0.24 kva=15 tap=1 conn=wye
~ wdg=3 bus=1793117.4.2 kv=0.24 kva=15 tap=1 conn=wye
New Reactor.TF393327 phases=1 bus1=1793117.4 R=15 X=0 basefreq=60

New transformer.393607 phases=1 xhl=1.921 xht=1.921 xlt= 1.537 %r=1.6 windings=3 %loadloss=1.6 %noloadloss=0.4
~ wdg=1 bus=169506534.2 kv=7.96 kva=15 tap=1 conn=Wye
~ wdg=2 bus=1793677.1.4 kv=0.24 kva=15 tap=1 conn=wye
~ wdg=3 bus=1793677.4.2 kv=0.24 kva=15 tap=1 conn=wye
New Reactor.TF393607 phases=1 bus1=1793677.4 R=15 X=0 basefreq=60

New transformer.394062 phases=1 xhl=1.921 xht=1.921 xlt= 1.537 %r=1.6 windings=3 %loadloss=1.6 %noloadloss=0.4
~ wdg=1 bus=166723273.2 kv=7.96 kva=15 tap=1 conn=Wye
~ wdg=2 bus=1794587.1.4 kv=0.24 kva=15 tap=1 conn=wye
~ wdg=3 bus=1794587.4.2 kv=0.24 kva=15 tap=1 conn=wye
New Reactor.TF394062 phases=1 bus1=1794587.4 R=15 X=0 basefreq=60

New transformer.394090 phases=1 xhl=1.625 xht=1.625 xlt= 1.3 %r=1.9 windings=3 %loadloss=1.9 %noloadloss=0.6
~ wdg=1 bus=169506500.2 kv=7.96 kva=5 tap=1 conn=Wye
~ wdg=2 bus=1794643.1.4 kv=0.24 kva=5 tap=1 conn=wye
~ wdg=3 bus=1794643.4.2 kv=0.24 kva=5 tap=1 conn=wye
New Reactor.TF394090 phases=1 bus1=1794643.4 R=15 X=0 basefreq=60

New transformer.394510 phases=1 xhl=1.921 xht=1.921 xlt= 1.537 %r=1.6 windings=3 %loadloss=1.6 %noloadloss=0.4
~ wdg=1 bus=159498640.2 kv=7.96 kva=15 tap=1 conn=Wye
~ wdg=2 bus=1795483.1.4 kv=0.24 kva=15 tap=1 conn=wye
~ wdg=3 bus=1795483.4.2 kv=0.24 kva=15 tap=1 conn=wye
New Reactor.TF394510 phases=1 bus1=1795483.4 R=15 X=0 basefreq=60

New transformer.393992 phases=1 xhl=1.625 xht=1.625 xlt= 1.3 %r=1.9 windings=3 %loadloss=1.9 %noloadloss=0.6
~ wdg=1 bus=166723255.2 kv=7.96 kva=5 tap=1 conn=Wye
~ wdg=2 bus=1794447.1.4 kv=0.24 kva=5 tap=1 conn=wye
~ wdg=3 bus=1794447.4.2 kv=0.24 kva=5 tap=1 conn=wye
New Reactor.TF393992 phases=1 bus1=1794447.4 R=15 X=0 basefreq=60

New transformer.394111 phases=1 xhl=1.921 xht=1.921 xlt= 1.537 %r=1.6 windings=3 %loadloss=1.6 %noloadloss=0.4
~ wdg=1 bus=180279533.2 kv=7.96 kva=15 tap=1 conn=Wye
~ wdg=2 bus=1794685.1.4 kv=0.24 kva=15 tap=1 conn=wye
~ wdg=3 bus=1794685.4.2 kv=0.24 kva=15 tap=1 conn=wye
New Reactor.TF394111 phases=1 bus1=1794685.4 R=15 X=0 basefreq=60

New transformer.393936 phases=1 xhl=2.058 xht=2.058 xlt= 1.646 %r=1.42 windings=3 %loadloss=1.42 %noloadloss=0.32
~ wdg=1 bus=169506523.2 kv=7.96 kva=25 tap=1 conn=Wye
~ wdg=2 bus=1794335.1.4 kv=0.24 kva=25 tap=1 conn=wye
~ wdg=3 bus=1794335.4.2 kv=0.24 kva=25 tap=1 conn=wye
New Reactor.TF393936 phases=1 bus1=1794335.4 R=15 X=0 basefreq=60

New transformer.394538 phases=1 xhl=1.921 xht=1.921 xlt= 1.537 %r=1.6 windings=3 %loadloss=1.6 %noloadloss=0.4
~ wdg=1 bus=178837742.2 kv=7.96 kva=15 tap=1 conn=Wye
~ wdg=2 bus=1795539.1.4 kv=0.24 kva=15 tap=1 conn=wye
~ wdg=3 bus=1795539.4.2 kv=0.24 kva=15 tap=1 conn=wye
New Reactor.TF394538 phases=1 bus1=1795539.4 R=15 X=0 basefreq=60

New transformer.394300 phases=1 xhl=1.625 xht=1.625 xlt= 1.3 %r=1.9 windings=3 %loadloss=1.9 %noloadloss=0.6
~ wdg=1 bus=151922589.2 kv=7.96 kva=5 tap=1 conn=Wye
~ wdg=2 bus=1795063.1.4 kv=0.24 kva=5 tap=1 conn=wye
~ wdg=3 bus=1795063.4.2 kv=0.24 kva=5 tap=1 conn=wye
New Reactor.TF394300 phases=1 bus1=1795063.4 R=15 X=0 basefreq=60

New transformer.394223 phases=1 xhl=2.139 xht=2.139 xlt= 1.712 %r=1.293 windings=3 %loadloss=1.3108108108108107 %noloadloss=0.32432432432432434
~ wdg=1 bus=151922591.2 kv=7.96 kva=37 tap=1 conn=Wye
~ wdg=2 bus=1794909.1.4 kv=0.24 kva=37 tap=1 conn=wye
~ wdg=3 bus=1794909.4.2 kv=0.24 kva=37 tap=1 conn=wye
New Reactor.TF394223 phases=1 bus1=1794909.4 R=15 X=0 basefreq=60

New transformer.393502 phases=1 xhl=1.921 xht=1.921 xlt= 1.537 %r=1.6 windings=3 %loadloss=1.6 %noloadloss=0.4
~ wdg=1 bus=126414698.2 kv=7.96 kva=15 tap=1 conn=Wye
~ wdg=2 bus=1793467.1.4 kv=0.24 kva=15 tap=1 conn=wye
~ wdg=3 bus=1793467.4.2 kv=0.24 kva=15 tap=1 conn=wye
New Reactor.TF393502 phases=1 bus1=1793467.4 R=15 X=0 basefreq=60

New transformer.394055 phases=1 xhl=2.139 xht=2.139 xlt= 1.712 %r=1.293 windings=3 %loadloss=1.3108108108108107 %noloadloss=0.32432432432432434
~ wdg=1 bus=180279536.2 kv=7.96 kva=37 tap=1 conn=Wye
~ wdg=2 bus=1794573.1.4 kv=0.24 kva=37 tap=1 conn=wye
~ wdg=3 bus=1794573.4.2 kv=0.24 kva=37 tap=1 conn=wye
New Reactor.TF394055 phases=1 bus1=1794573.4 R=15 X=0 basefreq=60

New transformer.394027 phases=1 xhl=1.921 xht=1.921 xlt= 1.537 %r=1.6 windings=3 %loadloss=1.6 %noloadloss=0.4
~ wdg=1 bus=159498637.2 kv=7.96 kva=15 tap=1 conn=Wye
~ wdg=2 bus=1794517.1.4 kv=0.24 kva=15 tap=1 conn=wye
~ wdg=3 bus=1794517.4.2 kv=0.24 kva=15 tap=1 conn=wye
New Reactor.TF394027 phases=1 bus1=1794517.4 R=15 X=0 basefreq=60

New transformer.394888 phases=1 xhl=1.735 xht=1.735 xlt= 1.388 %r=1.8 windings=3 %loadloss=1.8 %noloadloss=0.45
~ wdg=1 bus=149837201.2 kv=7.96 kva=10 tap=1 conn=Wye
~ wdg=2 bus=1796596.1.4 kv=0.24 kva=10 tap=1 conn=wye
~ wdg=3 bus=1796596.4.2 kv=0.24 kva=10 tap=1 conn=wye
New Reactor.TF394888 phases=1 bus1=1796596.4 R=15 X=0 basefreq=60

New transformer.394706 phases=1 xhl=2.139 xht=2.139 xlt= 1.712 %r=1.293 windings=3 %loadloss=1.3108108108108107 %noloadloss=0.32432432432432434
~ wdg=1 bus=180384629.2 kv=7.96 kva=37 tap=1 conn=Wye
~ wdg=2 bus=1796239.1.4 kv=0.24 kva=37 tap=1 conn=wye
~ wdg=3 bus=1796239.4.2 kv=0.24 kva=37 tap=1 conn=wye
New Reactor.TF394706 phases=1 bus1=1796239.4 R=15 X=0 basefreq=60

New transformer.394195 phases=1 xhl=2.058 xht=2.058 xlt= 1.646 %r=1.42 windings=3 %loadloss=1.42 %noloadloss=0.32
~ wdg=1 bus=166723251.2 kv=7.96 kva=25 tap=1 conn=Wye
~ wdg=2 bus=1794853.1.4 kv=0.24 kva=25 tap=1 conn=wye
~ wdg=3 bus=1794853.4.2 kv=0.24 kva=25 tap=1 conn=wye
New Reactor.TF394195 phases=1 bus1=1794853.4 R=15 X=0 basefreq=60

New transformer.394181 phases=1 xhl=2.139 xht=2.139 xlt= 1.712 %r=1.293 windings=3 %loadloss=1.3108108108108107 %noloadloss=0.32432432432432434
~ wdg=1 bus=169506525.2 kv=7.96 kva=37 tap=1 conn=Wye
~ wdg=2 bus=1794825.1.4 kv=0.24 kva=37 tap=1 conn=wye
~ wdg=3 bus=1794825.4.2 kv=0.24 kva=37 tap=1 conn=wye
New Reactor.TF394181 phases=1 bus1=1794825.4 R=15 X=0 basefreq=60

New transformer.393852 phases=1 xhl=1.735 xht=1.735 xlt= 1.388 %r=1.8 windings=3 %loadloss=1.8 %noloadloss=0.45
~ wdg=1 bus=178132250.2 kv=7.96 kva=10 tap=1 conn=Wye
~ wdg=2 bus=1794167.1.4 kv=0.24 kva=10 tap=1 conn=wye
~ wdg=3 bus=1794167.4.2 kv=0.24 kva=10 tap=1 conn=wye
New Reactor.TF393852 phases=1 bus1=1794167.4 R=15 X=0 basefreq=60

New transformer.394328 phases=1 xhl=1.735 xht=1.735 xlt= 1.388 %r=1.8 windings=3 %loadloss=1.8 %noloadloss=0.45
~ wdg=1 bus=163140911.2 kv=7.96 kva=10 tap=1 conn=Wye
~ wdg=2 bus=1795119.1.4 kv=0.24 kva=10 tap=1 conn=wye
~ wdg=3 bus=1795119.4.2 kv=0.24 kva=10 tap=1 conn=wye
New Reactor.TF394328 phases=1 bus1=1795119.4 R=15 X=0 basefreq=60

New transformer.394384 phases=1 xhl=2.058 xht=2.058 xlt= 1.646 %r=1.42 windings=3 %loadloss=1.42 %noloadloss=0.32
~ wdg=1 bus=159498639.2 kv=7.96 kva=25 tap=1 conn=Wye
~ wdg=2 bus=1795231.1.4 kv=0.24 kva=25 tap=1 conn=wye
~ wdg=3 bus=1795231.4.2 kv=0.24 kva=25 tap=1 conn=wye
New Reactor.TF394384 phases=1 bus1=1795231.4 R=15 X=0 basefreq=60

New transformer.394132 phases=1 xhl=1.735 xht=1.735 xlt= 1.388 %r=1.8 windings=3 %loadloss=1.8 %noloadloss=0.45
~ wdg=1 bus=166723272.2 kv=7.96 kva=10 tap=1 conn=Wye
~ wdg=2 bus=1794727.1.4 kv=0.24 kva=10 tap=1 conn=wye
~ wdg=3 bus=1794727.4.2 kv=0.24 kva=10 tap=1 conn=wye
New Reactor.TF394132 phases=1 bus1=1794727.4 R=15 X=0 basefreq=60

New transformer.393488 phases=1 xhl=2.139 xht=2.139 xlt= 1.712 %r=1.293 windings=3 %loadloss=1.3108108108108107 %noloadloss=0.32432432432432434
~ wdg=1 bus=126414712.2 kv=7.96 kva=37 tap=1 conn=Wye
~ wdg=2 bus=1793439.1.4 kv=0.24 kva=37 tap=1 conn=wye
~ wdg=3 bus=1793439.4.2 kv=0.24 kva=37 tap=1 conn=wye
New Reactor.TF393488 phases=1 bus1=1793439.4 R=15 X=0 basefreq=60

New transformer.393999 phases=1 xhl=2.139 xht=2.139 xlt= 1.712 %r=1.293 windings=3 %loadloss=1.3108108108108107 %noloadloss=0.32432432432432434
~ wdg=1 bus=166723258.2 kv=7.96 kva=37 tap=1 conn=Wye
~ wdg=2 bus=1794461.1.4 kv=0.24 kva=37 tap=1 conn=wye
~ wdg=3 bus=1794461.4.2 kv=0.24 kva=37 tap=1 conn=wye
New Reactor.TF393999 phases=1 bus1=1794461.4 R=15 X=0 basefreq=60

New transformer.394104 phases=1 xhl=1.735 xht=1.735 xlt= 1.388 %r=1.8 windings=3 %loadloss=1.8 %noloadloss=0.45
~ wdg=1 bus=166723275.2 kv=7.96 kva=10 tap=1 conn=Wye
~ wdg=2 bus=1794671.1.4 kv=0.24 kva=10 tap=1 conn=wye
~ wdg=3 bus=1794671.4.2 kv=0.24 kva=10 tap=1 conn=wye
New Reactor.TF394104 phases=1 bus1=1794671.4 R=15 X=0 basefreq=60

New transformer.394664 phases=1 xhl=1.921 xht=1.921 xlt= 1.537 %r=1.6 windings=3 %loadloss=1.6 %noloadloss=0.4
~ wdg=1 bus=159498644.2 kv=7.96 kva=15 tap=1 conn=Wye
~ wdg=2 bus=1796008.1.4 kv=0.24 kva=15 tap=1 conn=wye
~ wdg=3 bus=1796008.4.2 kv=0.24 kva=15 tap=1 conn=wye
New Reactor.TF394664 phases=1 bus1=1796008.4 R=15 X=0 basefreq=60

New transformer.393775 phases=1 xhl=1.921 xht=1.921 xlt= 1.537 %r=1.6 windings=3 %loadloss=1.6 %noloadloss=0.4
~ wdg=1 bus=169506536.2 kv=7.96 kva=15 tap=1 conn=Wye
~ wdg=2 bus=1794013.1.4 kv=0.24 kva=15 tap=1 conn=wye
~ wdg=3 bus=1794013.4.2 kv=0.24 kva=15 tap=1 conn=wye
New Reactor.TF393775 phases=1 bus1=1794013.4 R=15 X=0 basefreq=60

New transformer.394524 phases=1 xhl=2.139 xht=2.139 xlt= 1.712 %r=1.293 windings=3 %loadloss=1.3108108108108107 %noloadloss=0.32432432432432434
~ wdg=1 bus=180384626.2 kv=7.96 kva=37 tap=1 conn=Wye
~ wdg=2 bus=1795511.1.4 kv=0.24 kva=37 tap=1 conn=wye
~ wdg=3 bus=1795511.4.2 kv=0.24 kva=37 tap=1 conn=wye
New Reactor.TF394524 phases=1 bus1=1795511.4 R=15 X=0 basefreq=60

New transformer.394671 phases=1 xhl=2.058 xht=2.058 xlt= 1.646 %r=1.42 windings=3 %loadloss=1.42 %noloadloss=0.32
~ wdg=1 bus=178837738.2 kv=7.96 kva=25 tap=1 conn=Wye
~ wdg=2 bus=1796022.1.4 kv=0.24 kva=25 tap=1 conn=wye
~ wdg=3 bus=1796022.4.2 kv=0.24 kva=25 tap=1 conn=wye
New Reactor.TF394671 phases=1 bus1=1796022.4 R=15 X=0 basefreq=60

New transformer.397814 phases=1 xhl=1.625 xht=1.625 xlt= 1.3 %r=1.9 windings=3 %loadloss=1.9 %noloadloss=0.6
~ wdg=1 bus=180953672.2 kv=7.96 kva=5 tap=1 conn=Wye
~ wdg=2 bus=1810568.1.4 kv=0.24 kva=5 tap=1 conn=wye
~ wdg=3 bus=1810568.4.2 kv=0.24 kva=5 tap=1 conn=wye
New Reactor.TF397814 phases=1 bus1=1810568.4 R=15 X=0 basefreq=60

New transformer.398017 phases=1 xhl=1.921 xht=1.921 xlt= 1.537 %r=1.6 windings=3 %loadloss=1.6 %noloadloss=0.4
~ wdg=1 bus=159082697.2 kv=7.96 kva=15 tap=1 conn=Wye
~ wdg=2 bus=1811702.1.4 kv=0.24 kva=15 tap=1 conn=wye
~ wdg=3 bus=1811702.4.2 kv=0.24 kva=15 tap=1 conn=wye
New Reactor.TF398017 phases=1 bus1=1811702.4 R=15 X=0 basefreq=60

New transformer.394139 phases=1 xhl=1.921 xht=1.921 xlt= 1.537 %r=1.6 windings=3 %loadloss=1.6 %noloadloss=0.4
~ wdg=1 bus=169506502.2 kv=7.96 kva=15 tap=1 conn=Wye
~ wdg=2 bus=1794741.1.4 kv=0.24 kva=15 tap=1 conn=wye
~ wdg=3 bus=1794741.4.2 kv=0.24 kva=15 tap=1 conn=wye
New Reactor.TF394139 phases=1 bus1=1794741.4 R=15 X=0 basefreq=60

New transformer.394398 phases=1 xhl=1.921 xht=1.921 xlt= 1.537 %r=1.6 windings=3 %loadloss=1.6 %noloadloss=0.4
~ wdg=1 bus=159498645.2 kv=7.96 kva=15 tap=1 conn=Wye
~ wdg=2 bus=1795259.1.4 kv=0.24 kva=15 tap=1 conn=wye
~ wdg=3 bus=1795259.4.2 kv=0.24 kva=15 tap=1 conn=wye
New Reactor.TF394398 phases=1 bus1=1795259.4 R=15 X=0 basefreq=60

New transformer.394615 phases=1 xhl=1.735 xht=1.735 xlt= 1.388 %r=1.8 windings=3 %loadloss=1.8 %noloadloss=0.45
~ wdg=1 bus=182270690.2 kv=7.96 kva=10 tap=1 conn=Wye
~ wdg=2 bus=1795791.1.4 kv=0.24 kva=10 tap=1 conn=wye
~ wdg=3 bus=1795791.4.2 kv=0.24 kva=10 tap=1 conn=wye
New Reactor.TF394615 phases=1 bus1=1795791.4 R=15 X=0 basefreq=60

New transformer.394958 phases=1 xhl=1.921 xht=1.921 xlt= 1.537 %r=1.6 windings=3 %loadloss=1.6 %noloadloss=0.4
~ wdg=1 bus=148913326.2 kv=7.96 kva=15 tap=1 conn=Wye
~ wdg=2 bus=1796897.1.4 kv=0.24 kva=15 tap=1 conn=wye
~ wdg=3 bus=1796897.4.2 kv=0.24 kva=15 tap=1 conn=wye
New Reactor.TF394958 phases=1 bus1=1796897.4 R=15 X=0 basefreq=60

New transformer.394286 phases=1 xhl=1.921 xht=1.921 xlt= 1.537 %r=1.6 windings=3 %loadloss=1.6 %noloadloss=0.4
~ wdg=1 bus=169506498.2 kv=7.96 kva=15 tap=1 conn=Wye
~ wdg=2 bus=1795035.1.4 kv=0.24 kva=15 tap=1 conn=wye
~ wdg=3 bus=1795035.4.2 kv=0.24 kva=15 tap=1 conn=wye
New Reactor.TF394286 phases=1 bus1=1795035.4 R=15 X=0 basefreq=60

New transformer.394573 phases=1 xhl=1.921 xht=1.921 xlt= 1.537 %r=1.6 windings=3 %loadloss=1.6 %noloadloss=0.4
~ wdg=1 bus=159498642.2 kv=7.96 kva=15 tap=1 conn=Wye
~ wdg=2 bus=1795665.1.4 kv=0.24 kva=15 tap=1 conn=wye
~ wdg=3 bus=1795665.4.2 kv=0.24 kva=15 tap=1 conn=wye
New Reactor.TF394573 phases=1 bus1=1795665.4 R=15 X=0 basefreq=60

New transformer.394083 phases=1 xhl=1.735 xht=1.735 xlt= 1.388 %r=1.8 windings=3 %loadloss=1.8 %noloadloss=0.45
~ wdg=1 bus=169506504.2 kv=7.96 kva=10 tap=1 conn=Wye
~ wdg=2 bus=1794629.1.4 kv=0.24 kva=10 tap=1 conn=wye
~ wdg=3 bus=1794629.4.2 kv=0.24 kva=10 tap=1 conn=wye
New Reactor.TF394083 phases=1 bus1=1794629.4 R=15 X=0 basefreq=60

New transformer.398402 phases=1 xhl=1.735 xht=1.735 xlt= 1.388 %r=1.8 windings=3 %loadloss=1.8 %noloadloss=0.45
~ wdg=1 bus=179163554.2 kv=7.96 kva=10 tap=1 conn=Wye
~ wdg=2 bus=1816028.1.4 kv=0.24 kva=10 tap=1 conn=wye
~ wdg=3 bus=1816028.4.2 kv=0.24 kva=10 tap=1 conn=wye
New Reactor.TF398402 phases=1 bus1=1816028.4 R=15 X=0 basefreq=60

New transformer.395035 phases=1 xhl=1.735 xht=1.735 xlt= 1.388 %r=1.8 windings=3 %loadloss=1.8 %noloadloss=0.45
~ wdg=1 bus=159082685.2 kv=7.96 kva=10 tap=1 conn=Wye
~ wdg=2 bus=1797618.1.4 kv=0.24 kva=10 tap=1 conn=wye
~ wdg=3 bus=1797618.4.2 kv=0.24 kva=10 tap=1 conn=wye
New Reactor.TF395035 phases=1 bus1=1797618.4 R=15 X=0 basefreq=60

New transformer.398647 phases=1 xhl=1.735 xht=1.735 xlt= 1.388 %r=1.8 windings=3 %loadloss=1.8 %noloadloss=0.45
~ wdg=1 bus=155480045.2 kv=7.96 kva=10 tap=1 conn=Wye
~ wdg=2 bus=1818933.1.4 kv=0.24 kva=10 tap=1 conn=wye
~ wdg=3 bus=1818933.4.2 kv=0.24 kva=10 tap=1 conn=wye
New Reactor.TF398647 phases=1 bus1=1818933.4 R=15 X=0 basefreq=60

New transformer.433150 phases=1 xhl=2.139 xht=2.139 xlt= 1.712 %r=1.293 windings=3 %loadloss=1.3108108108108107 %noloadloss=0.32432432432432434
~ wdg=1 bus=180289302.2 kv=7.96 kva=37 tap=1 conn=Wye
~ wdg=2 bus=2264980.1.4 kv=0.24 kva=37 tap=1 conn=wye
~ wdg=3 bus=2264980.4.2 kv=0.24 kva=37 tap=1 conn=wye
New Reactor.TF433150 phases=1 bus1=2264980.4 R=15 X=0 basefreq=60

New transformer.433157 phases=1 xhl=1.921 xht=1.921 xlt= 1.537 %r=1.6 windings=3 %loadloss=1.6 %noloadloss=0.4
~ wdg=1 bus=180289303.2 kv=7.96 kva=15 tap=1 conn=Wye
~ wdg=2 bus=2265022.1.4 kv=0.24 kva=15 tap=1 conn=wye
~ wdg=3 bus=2265022.4.2 kv=0.24 kva=15 tap=1 conn=wye
New Reactor.TF433157 phases=1 bus1=2265022.4 R=15 X=0 basefreq=60

New transformer.436454 phases=1 xhl=1.735 xht=1.735 xlt= 1.388 %r=1.8 windings=3 %loadloss=1.8 %noloadloss=0.45
~ wdg=1 bus=177162996.2 kv=7.96 kva=10 tap=1 conn=Wye
~ wdg=2 bus=2286988.1.4 kv=0.24 kva=10 tap=1 conn=wye
~ wdg=3 bus=2286988.4.2 kv=0.24 kva=10 tap=1 conn=wye
New Reactor.TF436454 phases=1 bus1=2286988.4 R=15 X=0 basefreq=60

New transformer.395259 phases=1 xhl=1.921 xht=1.921 xlt= 1.537 %r=1.6 windings=3 %loadloss=1.6 %noloadloss=0.4
~ wdg=1 bus=126415405.3 kv=7.96 kva=15 tap=1 conn=Wye
~ wdg=2 bus=1798108.1.4 kv=0.24 kva=15 tap=1 conn=wye
~ wdg=3 bus=1798108.4.2 kv=0.24 kva=15 tap=1 conn=wye
New Reactor.TF395259 phases=1 bus1=1798108.4 R=15 X=0 basefreq=60

New transformer.395518 phases=1 xhl=1.921 xht=1.921 xlt= 1.537 %r=1.6 windings=3 %loadloss=1.6 %noloadloss=0.4
~ wdg=1 bus=149833107.3 kv=7.96 kva=15 tap=1 conn=Wye
~ wdg=2 bus=1798626.1.4 kv=0.24 kva=15 tap=1 conn=wye
~ wdg=3 bus=1798626.4.2 kv=0.24 kva=15 tap=1 conn=wye
New Reactor.TF395518 phases=1 bus1=1798626.4 R=15 X=0 basefreq=60

New transformer.395700 phases=1 xhl=1.921 xht=1.921 xlt= 1.537 %r=1.6 windings=3 %loadloss=1.6 %noloadloss=0.4
~ wdg=1 bus=183199099.3 kv=7.96 kva=15 tap=1 conn=Wye
~ wdg=2 bus=1799074.1.4 kv=0.24 kva=15 tap=1 conn=wye
~ wdg=3 bus=1799074.4.2 kv=0.24 kva=15 tap=1 conn=wye
New Reactor.TF395700 phases=1 bus1=1799074.4 R=15 X=0 basefreq=60

New transformer.395175 phases=1 xhl=2.058 xht=2.058 xlt= 1.646 %r=1.42 windings=3 %loadloss=1.42 %noloadloss=0.32
~ wdg=1 bus=152659301.3 kv=7.96 kva=25 tap=1 conn=Wye
~ wdg=2 bus=1797940.1.4 kv=0.24 kva=25 tap=1 conn=wye
~ wdg=3 bus=1797940.4.2 kv=0.24 kva=25 tap=1 conn=wye
New Reactor.TF395175 phases=1 bus1=1797940.4 R=15 X=0 basefreq=60

New transformer.395721 phases=1 xhl=1.921 xht=1.921 xlt= 1.537 %r=1.6 windings=3 %loadloss=1.6 %noloadloss=0.4
~ wdg=1 bus=183199101.3 kv=7.96 kva=15 tap=1 conn=Wye
~ wdg=2 bus=1799116.1.4 kv=0.24 kva=15 tap=1 conn=wye
~ wdg=3 bus=1799116.4.2 kv=0.24 kva=15 tap=1 conn=wye
New Reactor.TF395721 phases=1 bus1=1799116.4 R=15 X=0 basefreq=60

New transformer.395140 phases=1 xhl=1.735 xht=1.735 xlt= 1.388 %r=1.8 windings=3 %loadloss=1.8 %noloadloss=0.45
~ wdg=1 bus=126415370.3 kv=7.96 kva=10 tap=1 conn=Wye
~ wdg=2 bus=1797870.1.4 kv=0.24 kva=10 tap=1 conn=wye
~ wdg=3 bus=1797870.4.2 kv=0.24 kva=10 tap=1 conn=wye
New Reactor.TF395140 phases=1 bus1=1797870.4 R=15 X=0 basefreq=60

New transformer.395609 phases=1 xhl=2.139 xht=2.139 xlt= 1.712 %r=1.293 windings=3 %loadloss=1.3108108108108107 %noloadloss=0.32432432432432434
~ wdg=1 bus=152659308.3 kv=7.96 kva=37 tap=1 conn=Wye
~ wdg=2 bus=1798808.1.4 kv=0.24 kva=37 tap=1 conn=wye
~ wdg=3 bus=1798808.4.2 kv=0.24 kva=37 tap=1 conn=wye
New Reactor.TF395609 phases=1 bus1=1798808.4 R=15 X=0 basefreq=60

New transformer.395070 phases=1 xhl=1.735 xht=1.735 xlt= 1.388 %r=1.8 windings=3 %loadloss=1.8 %noloadloss=0.45
~ wdg=1 bus=158459765.3 kv=7.96 kva=10 tap=1 conn=Wye
~ wdg=2 bus=1797730.1.4 kv=0.24 kva=10 tap=1 conn=wye
~ wdg=3 bus=1797730.4.2 kv=0.24 kva=10 tap=1 conn=wye
New Reactor.TF395070 phases=1 bus1=1797730.4 R=15 X=0 basefreq=60

New transformer.395455 phases=1 xhl=1.921 xht=1.921 xlt= 1.537 %r=1.6 windings=3 %loadloss=1.6 %noloadloss=0.4
~ wdg=1 bus=152659314.3 kv=7.96 kva=15 tap=1 conn=Wye
~ wdg=2 bus=1798500.1.4 kv=0.24 kva=15 tap=1 conn=wye
~ wdg=3 bus=1798500.4.2 kv=0.24 kva=15 tap=1 conn=wye
New Reactor.TF395455 phases=1 bus1=1798500.4 R=15 X=0 basefreq=60

New transformer.395539 phases=1 xhl=2.139 xht=2.139 xlt= 1.712 %r=1.293 windings=3 %loadloss=1.3108108108108107 %noloadloss=0.32432432432432434
~ wdg=1 bus=152659307.3 kv=7.96 kva=37 tap=1 conn=Wye
~ wdg=2 bus=1798668.1.4 kv=0.24 kva=37 tap=1 conn=wye
~ wdg=3 bus=1798668.4.2 kv=0.24 kva=37 tap=1 conn=wye
New Reactor.TF395539 phases=1 bus1=1798668.4 R=15 X=0 basefreq=60

New transformer.395938 phases=1 xhl=1.735 xht=1.735 xlt= 1.388 %r=1.8 windings=3 %loadloss=1.8 %noloadloss=0.45
~ wdg=1 bus=183199106.3 kv=7.96 kva=10 tap=1 conn=Wye
~ wdg=2 bus=1799928.1.4 kv=0.24 kva=10 tap=1 conn=wye
~ wdg=3 bus=1799928.4.2 kv=0.24 kva=10 tap=1 conn=wye
New Reactor.TF395938 phases=1 bus1=1799928.4 R=15 X=0 basefreq=60

New transformer.397142 phases=1 xhl=1.735 xht=1.735 xlt= 1.388 %r=1.8 windings=3 %loadloss=1.8 %noloadloss=0.45
~ wdg=1 bus=183199114.3 kv=7.96 kva=10 tap=1 conn=Wye
~ wdg=2 bus=1806865.1.4 kv=0.24 kva=10 tap=1 conn=wye
~ wdg=3 bus=1806865.4.2 kv=0.24 kva=10 tap=1 conn=wye
New Reactor.TF397142 phases=1 bus1=1806865.4 R=15 X=0 basefreq=60

New transformer.395126 phases=1 xhl=1.921 xht=1.921 xlt= 1.537 %r=1.6 windings=3 %loadloss=1.6 %noloadloss=0.4
~ wdg=1 bus=152659300.3 kv=7.96 kva=15 tap=1 conn=Wye
~ wdg=2 bus=1797842.1.4 kv=0.24 kva=15 tap=1 conn=wye
~ wdg=3 bus=1797842.4.2 kv=0.24 kva=15 tap=1 conn=wye
New Reactor.TF395126 phases=1 bus1=1797842.4 R=15 X=0 basefreq=60

New transformer.396652 phases=1 xhl=1.735 xht=1.735 xlt= 1.388 %r=1.8 windings=3 %loadloss=1.8 %noloadloss=0.45
~ wdg=1 bus=166473925.3 kv=7.96 kva=10 tap=1 conn=Wye
~ wdg=2 bus=1804478.1.4 kv=0.24 kva=10 tap=1 conn=wye
~ wdg=3 bus=1804478.4.2 kv=0.24 kva=10 tap=1 conn=wye
New Reactor.TF396652 phases=1 bus1=1804478.4 R=15 X=0 basefreq=60

New transformer.396946 phases=1 xhl=1.921 xht=1.921 xlt= 1.537 %r=1.6 windings=3 %loadloss=1.6 %noloadloss=0.4
~ wdg=1 bus=179261955.3 kv=7.96 kva=15 tap=1 conn=Wye
~ wdg=2 bus=1806473.1.4 kv=0.24 kva=15 tap=1 conn=wye
~ wdg=3 bus=1806473.4.2 kv=0.24 kva=15 tap=1 conn=wye
New Reactor.TF396946 phases=1 bus1=1806473.4 R=15 X=0 basefreq=60

New transformer.395833 phases=1 xhl=1.921 xht=1.921 xlt= 1.537 %r=1.6 windings=3 %loadloss=1.6 %noloadloss=0.4
~ wdg=1 bus=183199147.3 kv=7.96 kva=15 tap=1 conn=Wye
~ wdg=2 bus=1799480.1.4 kv=0.24 kva=15 tap=1 conn=wye
~ wdg=3 bus=1799480.4.2 kv=0.24 kva=15 tap=1 conn=wye
New Reactor.TF395833 phases=1 bus1=1799480.4 R=15 X=0 basefreq=60

New transformer.396568 phases=1 xhl=1.735 xht=1.735 xlt= 1.388 %r=1.8 windings=3 %loadloss=1.8 %noloadloss=0.45
~ wdg=1 bus=166473924.3 kv=7.96 kva=10 tap=1 conn=Wye
~ wdg=2 bus=1803799.1.4 kv=0.24 kva=10 tap=1 conn=wye
~ wdg=3 bus=1803799.4.2 kv=0.24 kva=10 tap=1 conn=wye
New Reactor.TF396568 phases=1 bus1=1803799.4 R=15 X=0 basefreq=60

New transformer.395987 phases=1 xhl=1.735 xht=1.735 xlt= 1.388 %r=1.8 windings=3 %loadloss=1.8 %noloadloss=0.45
~ wdg=1 bus=183401701.3 kv=7.96 kva=10 tap=1 conn=Wye
~ wdg=2 bus=1800222.1.4 kv=0.24 kva=10 tap=1 conn=wye
~ wdg=3 bus=1800222.4.2 kv=0.24 kva=10 tap=1 conn=wye
New Reactor.TF395987 phases=1 bus1=1800222.4 R=15 X=0 basefreq=60

New transformer.396974 phases=1 xhl=2.139 xht=2.139 xlt= 1.712 %r=1.293 windings=3 %loadloss=1.3108108108108107 %noloadloss=0.32432432432432434
~ wdg=1 bus=179261954.3 kv=7.96 kva=37 tap=1 conn=Wye
~ wdg=2 bus=1806529.1.4 kv=0.24 kva=37 tap=1 conn=wye
~ wdg=3 bus=1806529.4.2 kv=0.24 kva=37 tap=1 conn=wye
New Reactor.TF396974 phases=1 bus1=1806529.4 R=15 X=0 basefreq=60

New transformer.396610 phases=1 xhl=1.735 xht=1.735 xlt= 1.388 %r=1.8 windings=3 %loadloss=1.8 %noloadloss=0.45
~ wdg=1 bus=183199112.3 kv=7.96 kva=10 tap=1 conn=Wye
~ wdg=2 bus=1804002.1.4 kv=0.24 kva=10 tap=1 conn=wye
~ wdg=3 bus=1804002.4.2 kv=0.24 kva=10 tap=1 conn=wye
New Reactor.TF396610 phases=1 bus1=1804002.4 R=15 X=0 basefreq=60

New transformer.393586 phases=1 xhl=1.735 xht=1.735 xlt= 1.388 %r=1.8 windings=3 %loadloss=1.8 %noloadloss=0.45
~ wdg=1 bus=126414887.3 kv=7.96 kva=10 tap=1 conn=Wye
~ wdg=2 bus=1793635.1.4 kv=0.24 kva=10 tap=1 conn=wye
~ wdg=3 bus=1793635.4.2 kv=0.24 kva=10 tap=1 conn=wye
New Reactor.TF393586 phases=1 bus1=1793635.4 R=15 X=0 basefreq=60

New transformer.393593 phases=1 xhl=1.735 xht=1.735 xlt= 1.388 %r=1.8 windings=3 %loadloss=1.8 %noloadloss=0.45
~ wdg=1 bus=126414670.3 kv=7.96 kva=10 tap=1 conn=Wye
~ wdg=2 bus=1793649.1.4 kv=0.24 kva=10 tap=1 conn=wye
~ wdg=3 bus=1793649.4.2 kv=0.24 kva=10 tap=1 conn=wye
New Reactor.TF393593 phases=1 bus1=1793649.4 R=15 X=0 basefreq=60

New transformer.393894 phases=1 xhl=1.735 xht=1.735 xlt= 1.388 %r=1.8 windings=3 %loadloss=1.8 %noloadloss=0.45
~ wdg=1 bus=167347896.3 kv=7.96 kva=10 tap=1 conn=Wye
~ wdg=2 bus=1794251.1.4 kv=0.24 kva=10 tap=1 conn=wye
~ wdg=3 bus=1794251.4.2 kv=0.24 kva=10 tap=1 conn=wye
New Reactor.TF393894 phases=1 bus1=1794251.4 R=15 X=0 basefreq=60

New transformer.394363 phases=1 xhl=1.735 xht=1.735 xlt= 1.388 %r=1.8 windings=3 %loadloss=1.8 %noloadloss=0.45
~ wdg=1 bus=137589540.3 kv=7.96 kva=10 tap=1 conn=Wye
~ wdg=2 bus=1795189.1.4 kv=0.24 kva=10 tap=1 conn=wye
~ wdg=3 bus=1795189.4.2 kv=0.24 kva=10 tap=1 conn=wye
New Reactor.TF394363 phases=1 bus1=1795189.4 R=15 X=0 basefreq=60

New transformer.393747 phases=1 xhl=1.921 xht=1.921 xlt= 1.537 %r=1.6 windings=3 %loadloss=1.6 %noloadloss=0.4
~ wdg=1 bus=163153910.3 kv=7.96 kva=15 tap=1 conn=Wye
~ wdg=2 bus=1793957.1.4 kv=0.24 kva=15 tap=1 conn=wye
~ wdg=3 bus=1793957.4.2 kv=0.24 kva=15 tap=1 conn=wye
New Reactor.TF393747 phases=1 bus1=1793957.4 R=15 X=0 basefreq=60

New transformer.397289 phases=1 xhl=1.625 xht=1.625 xlt= 1.3 %r=1.9 windings=3 %loadloss=1.9 %noloadloss=0.6
~ wdg=1 bus=175233849.3 kv=7.96 kva=5 tap=1 conn=Wye
~ wdg=2 bus=1807495.1.4 kv=0.24 kva=5 tap=1 conn=wye
~ wdg=3 bus=1807495.4.2 kv=0.24 kva=5 tap=1 conn=wye
New Reactor.TF397289 phases=1 bus1=1807495.4 R=15 X=0 basefreq=60

New transformer.394832 phases=1 xhl=1.735 xht=1.735 xlt= 1.388 %r=1.8 windings=3 %loadloss=1.8 %noloadloss=0.45
~ wdg=1 bus=163175246.3 kv=7.96 kva=10 tap=1 conn=Wye
~ wdg=2 bus=1796484.1.4 kv=0.24 kva=10 tap=1 conn=wye
~ wdg=3 bus=1796484.4.2 kv=0.24 kva=10 tap=1 conn=wye
New Reactor.TF394832 phases=1 bus1=1796484.4 R=15 X=0 basefreq=60

New transformer.394622 phases=1 xhl=2.058 xht=2.058 xlt= 1.646 %r=1.42 windings=3 %loadloss=1.42 %noloadloss=0.32
~ wdg=1 bus=178837737.3 kv=7.96 kva=25 tap=1 conn=Wye
~ wdg=2 bus=1795805.1.4 kv=0.24 kva=25 tap=1 conn=wye
~ wdg=3 bus=1795805.4.2 kv=0.24 kva=25 tap=1 conn=wye
New Reactor.TF394622 phases=1 bus1=1795805.4 R=15 X=0 basefreq=60

New transformer.394314 phases=1 xhl=2.139 xht=2.139 xlt= 1.712 %r=1.293 windings=3 %loadloss=1.3108108108108107 %noloadloss=0.32432432432432434
~ wdg=1 bus=137589533.3 kv=7.96 kva=37 tap=1 conn=Wye
~ wdg=2 bus=1795091.1.4 kv=0.24 kva=37 tap=1 conn=wye
~ wdg=3 bus=1795091.4.2 kv=0.24 kva=37 tap=1 conn=wye
New Reactor.TF394314 phases=1 bus1=1795091.4 R=15 X=0 basefreq=60

New transformer.393614 phases=1 xhl=1.921 xht=1.921 xlt= 1.537 %r=1.6 windings=3 %loadloss=1.6 %noloadloss=0.4
~ wdg=1 bus=126409973.3 kv=7.96 kva=15 tap=1 conn=Wye
~ wdg=2 bus=1793691.1.4 kv=0.24 kva=15 tap=1 conn=wye
~ wdg=3 bus=1793691.4.2 kv=0.24 kva=15 tap=1 conn=wye
New Reactor.TF393614 phases=1 bus1=1793691.4 R=15 X=0 basefreq=60

New transformer.394594 phases=1 xhl=1.921 xht=1.921 xlt= 1.537 %r=1.6 windings=3 %loadloss=1.6 %noloadloss=0.4
~ wdg=1 bus=139961035.3 kv=7.96 kva=15 tap=1 conn=Wye
~ wdg=2 bus=1795707.1.4 kv=0.24 kva=15 tap=1 conn=wye
~ wdg=3 bus=1795707.4.2 kv=0.24 kva=15 tap=1 conn=wye
New Reactor.TF394594 phases=1 bus1=1795707.4 R=15 X=0 basefreq=60

New transformer.393873 phases=1 xhl=1.921 xht=1.921 xlt= 1.537 %r=1.6 windings=3 %loadloss=1.6 %noloadloss=0.4
~ wdg=1 bus=126409959.3 kv=7.96 kva=15 tap=1 conn=Wye
~ wdg=2 bus=1794209.1.4 kv=0.24 kva=15 tap=1 conn=wye
~ wdg=3 bus=1794209.4.2 kv=0.24 kva=15 tap=1 conn=wye
New Reactor.TF393873 phases=1 bus1=1794209.4 R=15 X=0 basefreq=60

New transformer.394643 phases=1 xhl=2.139 xht=2.139 xlt= 1.712 %r=1.293 windings=3 %loadloss=1.3108108108108107 %noloadloss=0.32432432432432434
~ wdg=1 bus=178837735.3 kv=7.96 kva=37 tap=1 conn=Wye
~ wdg=2 bus=1795931.1.4 kv=0.24 kva=37 tap=1 conn=wye
~ wdg=3 bus=1795931.4.2 kv=0.24 kva=37 tap=1 conn=wye
New Reactor.TF394643 phases=1 bus1=1795931.4 R=15 X=0 basefreq=60

New transformer.398213 phases=1 xhl=1.735 xht=1.735 xlt= 1.388 %r=1.8 windings=3 %loadloss=1.8 %noloadloss=0.45
~ wdg=1 bus=170717856.3 kv=7.96 kva=10 tap=1 conn=Wye
~ wdg=2 bus=1813809.1.4 kv=0.24 kva=10 tap=1 conn=wye
~ wdg=3 bus=1813809.4.2 kv=0.24 kva=10 tap=1 conn=wye
New Reactor.TF398213 phases=1 bus1=1813809.4 R=15 X=0 basefreq=60

New transformer.395000 phases=1 xhl=1.735 xht=1.735 xlt= 1.388 %r=1.8 windings=3 %loadloss=1.8 %noloadloss=0.45
~ wdg=1 bus=170310091.3 kv=7.96 kva=10 tap=1 conn=Wye
~ wdg=2 bus=1797506.1.4 kv=0.24 kva=10 tap=1 conn=wye
~ wdg=3 bus=1797506.4.2 kv=0.24 kva=10 tap=1 conn=wye
New Reactor.TF395000 phases=1 bus1=1797506.4 R=15 X=0 basefreq=60

New transformer.437798 phases=1 xhl=1.625 xht=1.625 xlt= 1.3 %r=1.9 windings=3 %loadloss=1.9 %noloadloss=0.6
~ wdg=1 bus=170717858.3 kv=7.96 kva=5 tap=1 conn=Wye
~ wdg=2 bus=2296830.1.4 kv=0.24 kva=5 tap=1 conn=wye
~ wdg=3 bus=2296830.4.2 kv=0.24 kva=5 tap=1 conn=wye
New Reactor.TF437798 phases=1 bus1=2296830.4 R=15 X=0 basefreq=60

New transformer.438120 phases=1 xhl=1.921 xht=1.921 xlt= 1.537 %r=1.6 windings=3 %loadloss=1.6 %noloadloss=0.4
~ wdg=1 bus=166482831.3 kv=7.96 kva=15 tap=1 conn=Wye
~ wdg=2 bus=2299952.1.4 kv=0.24 kva=15 tap=1 conn=wye
~ wdg=3 bus=2299952.4.2 kv=0.24 kva=15 tap=1 conn=wye
New Reactor.TF438120 phases=1 bus1=2299952.4 R=15 X=0 basefreq=60

New transformer.395763 phases=3 xhl=3.7 %r=1.52 windings=2 %loadloss=1.5222222222222221 %noloadloss=0.37777777777777777
~ wdg=1 bus=126416063.1.2.3 kv=13.8 kva=45 tap=1 conn=delta
~ wdg=2 bus=1799270.1.2.3.4 kv=0.22 kva=45 tap=1 conn=wye
New Reactor.TF395763 phases=1 bus1=1799270.4 R=15 X=0 basefreq=60

New transformer.395770 phases=3 xhl=3.7 %r=1.52 windings=2 %loadloss=1.5222222222222221 %noloadloss=0.37777777777777777
~ wdg=1 bus=126415986.1.2.3 kv=13.8 kva=45 tap=1 conn=delta
~ wdg=2 bus=1799284.1.2.3.4 kv=0.22 kva=45 tap=1 conn=wye
New Reactor.TF395770 phases=1 bus1=1799284.4 R=15 X=0 basefreq=60

New transformer.395644 phases=3 xhl=3.64 %r=1.67 windings=2 %loadloss=1.6666666666666667 %noloadloss=0.43333333333333335
~ wdg=1 bus=126415923.1.2.3 kv=13.8 kva=30 tap=1 conn=delta
~ wdg=2 bus=1798878.1.2.3.4 kv=0.22 kva=30 tap=1 conn=wye
New Reactor.TF395644 phases=1 bus1=1798878.4 R=15 X=0 basefreq=60

New transformer.395266 phases=3 xhl=3.64 %r=1.67 windings=2 %loadloss=1.6666666666666667 %noloadloss=0.43333333333333335
~ wdg=1 bus=158459766.1.2.3 kv=13.8 kva=30 tap=1 conn=delta
~ wdg=2 bus=1798122.1.2.3.4 kv=0.22 kva=30 tap=1 conn=wye
New Reactor.TF395266 phases=1 bus1=1798122.4 R=15 X=0 basefreq=60

New transformer.395784 phases=3 xhl=3.48 %r=1.97 windings=2 %loadloss=1.9666666666666666 %noloadloss=0.5
~ wdg=1 bus=126416028.1.2.3 kv=13.8 kva=15 tap=1 conn=delta
~ wdg=2 bus=1799347.1.2.3.4 kv=0.22 kva=15 tap=1 conn=wye
New Reactor.TF395784 phases=1 bus1=1799347.4 R=15 X=0 basefreq=60

New transformer.395707 phases=3 xhl=3.64 %r=1.67 windings=2 %loadloss=1.6666666666666667 %noloadloss=0.43333333333333335
~ wdg=1 bus=126415965.1.2.3 kv=13.8 kva=30 tap=1 conn=delta
~ wdg=2 bus=1799088.1.2.3.4 kv=0.22 kva=30 tap=1 conn=wye
New Reactor.TF395707 phases=1 bus1=1799088.4 R=15 X=0 basefreq=60

New transformer.395294 phases=3 xhl=3.77 %r=1.34 windings=2 %loadloss=1.34 %noloadloss=0.34
~ wdg=1 bus=176816180.1.2.3 kv=13.8 kva=75 tap=1 conn=delta
~ wdg=2 bus=1798178.1.2.3.4 kv=0.22 kva=75 tap=1 conn=wye
New Reactor.TF395294 phases=1 bus1=1798178.4 R=15 X=0 basefreq=60

New transformer.395504 phases=3 xhl=3.7 %r=1.52 windings=2 %loadloss=1.5222222222222221 %noloadloss=0.37777777777777777
~ wdg=1 bus=126416056.1.2.3 kv=13.8 kva=45 tap=1 conn=delta
~ wdg=2 bus=1798598.1.2.3.4 kv=0.22 kva=45 tap=1 conn=wye
New Reactor.TF395504 phases=1 bus1=1798598.4 R=15 X=0 basefreq=60

New transformer.395147 phases=3 xhl=3.7 %r=1.52 windings=2 %loadloss=1.5222222222222221 %noloadloss=0.37777777777777777
~ wdg=1 bus=183148980.1.2.3 kv=13.8 kva=45 tap=1 conn=delta
~ wdg=2 bus=1797884.1.2.3.4 kv=0.22 kva=45 tap=1 conn=wye
New Reactor.TF395147 phases=1 bus1=1797884.4 R=15 X=0 basefreq=60

New transformer.397373 phases=3 xhl=3.77 %r=1.34 windings=2 %loadloss=1.34 %noloadloss=0.34
~ wdg=1 bus=183598528.1.2.3 kv=13.8 kva=75 tap=1 conn=delta
~ wdg=2 bus=1807908.1.2.3.4 kv=0.22 kva=75 tap=1 conn=wye
New Reactor.TF397373 phases=1 bus1=1807908.4 R=15 X=0 basefreq=60

New transformer.395084 phases=3 xhl=3.64 %r=1.67 windings=2 %loadloss=1.6666666666666667 %noloadloss=0.43333333333333335
~ wdg=1 bus=162066292.1.2.3 kv=13.8 kva=30 tap=1 conn=delta
~ wdg=2 bus=1797758.1.2.3.4 kv=0.22 kva=30 tap=1 conn=wye
New Reactor.TF395084 phases=1 bus1=1797758.4 R=15 X=0 basefreq=60

New transformer.396477 phases=3 xhl=3.64 %r=1.67 windings=2 %loadloss=1.6666666666666667 %noloadloss=0.43333333333333335
~ wdg=1 bus=173996336.1.2.3 kv=13.8 kva=30 tap=1 conn=delta
~ wdg=2 bus=1803358.1.2.3.4 kv=0.22 kva=30 tap=1 conn=wye
New Reactor.TF396477 phases=1 bus1=1803358.4 R=15 X=0 basefreq=60

New transformer.396456 phases=3 xhl=3.64 %r=1.67 windings=2 %loadloss=1.6666666666666667 %noloadloss=0.43333333333333335
~ wdg=1 bus=138009638.1.2.3 kv=13.8 kva=30 tap=1 conn=delta
~ wdg=2 bus=1803281.1.2.3.4 kv=0.22 kva=30 tap=1 conn=wye
New Reactor.TF396456 phases=1 bus1=1803281.4 R=15 X=0 basefreq=60

New transformer.395994 phases=3 xhl=3.7 %r=1.52 windings=2 %loadloss=1.5222222222222221 %noloadloss=0.37777777777777777
~ wdg=1 bus=157256349.1.2.3 kv=13.8 kva=45 tap=1 conn=delta
~ wdg=2 bus=1800236.1.2.3.4 kv=0.22 kva=45 tap=1 conn=wye
New Reactor.TF395994 phases=1 bus1=1800236.4 R=15 X=0 basefreq=60

New transformer.396281 phases=3 xhl=3.77 %r=1.34 windings=2 %loadloss=1.34 %noloadloss=0.34
~ wdg=1 bus=173996333.1.2.3 kv=13.8 kva=75 tap=1 conn=delta
~ wdg=2 bus=1802098.1.2.3.4 kv=0.22 kva=75 tap=1 conn=wye
New Reactor.TF396281 phases=1 bus1=1802098.4 R=15 X=0 basefreq=60

New transformer.396855 phases=3 xhl=3.7 %r=1.52 windings=2 %loadloss=1.5222222222222221 %noloadloss=0.37777777777777777
~ wdg=1 bus=166466633.1.2.3 kv=13.8 kva=45 tap=1 conn=delta
~ wdg=2 bus=1806095.1.2.3.4 kv=0.22 kva=45 tap=1 conn=wye
New Reactor.TF396855 phases=1 bus1=1806095.4 R=15 X=0 basefreq=60

New transformer.396085 phases=3 xhl=3.64 %r=1.67 windings=2 %loadloss=1.6666666666666667 %noloadloss=0.43333333333333335
~ wdg=1 bus=126416007.1.2.3 kv=13.8 kva=30 tap=1 conn=delta
~ wdg=2 bus=1800789.1.2.3.4 kv=0.22 kva=30 tap=1 conn=wye
New Reactor.TF396085 phases=1 bus1=1800789.4 R=15 X=0 basefreq=60

New transformer.396743 phases=3 xhl=3.64 %r=1.67 windings=2 %loadloss=1.6666666666666667 %noloadloss=0.43333333333333335
~ wdg=1 bus=138009631.1.2.3 kv=13.8 kva=30 tap=1 conn=delta
~ wdg=2 bus=1805101.1.2.3.4 kv=0.22 kva=30 tap=1 conn=wye
New Reactor.TF396743 phases=1 bus1=1805101.4 R=15 X=0 basefreq=60

New transformer.394391 phases=3 xhl=3.64 %r=1.67 windings=2 %loadloss=1.6666666666666667 %noloadloss=0.43333333333333335
~ wdg=1 bus=181432274.1.2.3 kv=13.8 kva=30 tap=1 conn=delta
~ wdg=2 bus=1795245.1.2.3.4 kv=0.22 kva=30 tap=1 conn=wye
New Reactor.TF394391 phases=1 bus1=1795245.4 R=15 X=0 basefreq=60

New transformer.394517 phases=3 xhl=3.77 %r=1.34 windings=2 %loadloss=1.34 %noloadloss=0.34
~ wdg=1 bus=161804128.1.2.3 kv=13.8 kva=75 tap=1 conn=delta
~ wdg=2 bus=1795497.1.2.3.4 kv=0.22 kva=75 tap=1 conn=wye
New Reactor.TF394517 phases=1 bus1=1795497.4 R=15 X=0 basefreq=60

New transformer.394209 phases=3 xhl=3.7 %r=1.52 windings=2 %loadloss=1.5222222222222221 %noloadloss=0.37777777777777777
~ wdg=1 bus=181425943.1.2.3 kv=13.8 kva=45 tap=1 conn=delta
~ wdg=2 bus=1794881.1.2.3.4 kv=0.22 kva=45 tap=1 conn=wye
New Reactor.TF394209 phases=1 bus1=1794881.4 R=15 X=0 basefreq=60

New transformer.394783 phases=3 xhl=3.84 %r=1.13 windings=2 %loadloss=1.1266666666666667 %noloadloss=0.28
~ wdg=1 bus=126411380.1.2.3 kv=13.8 kva=150 tap=1 conn=delta
~ wdg=2 bus=1796386.1.2.3.4 kv=0.22 kva=150 tap=1 conn=wye
New Reactor.TF394783 phases=1 bus1=1796386.4 R=15 X=0 basefreq=60

New transformer.397408 phases=3 xhl=3.81 %r=1.22 windings=2 %loadloss=1.2232142857142858 %noloadloss=0.29910714285714285
~ wdg=1 bus=183598787.1.2.3 kv=13.8 kva=112 tap=1 conn=delta
~ wdg=2 bus=1808244.1.2.3.4 kv=0.22 kva=112 tap=1 conn=wye
New Reactor.TF397408 phases=1 bus1=1808244.4 R=15 X=0 basefreq=60

New transformer.393922 phases=3 xhl=3.64 %r=1.67 windings=2 %loadloss=1.6666666666666667 %noloadloss=0.43333333333333335
~ wdg=1 bus=126415083.1.2.3 kv=13.8 kva=30 tap=1 conn=delta
~ wdg=2 bus=1794307.1.2.3.4 kv=0.22 kva=30 tap=1 conn=wye
New Reactor.TF393922 phases=1 bus1=1794307.4 R=15 X=0 basefreq=60

New transformer.394335 phases=3 xhl=3.7 %r=1.52 windings=2 %loadloss=1.5222222222222221 %noloadloss=0.37777777777777777
~ wdg=1 bus=181432275.1.2.3 kv=13.8 kva=45 tap=1 conn=delta
~ wdg=2 bus=1795133.1.2.3.4 kv=0.22 kva=45 tap=1 conn=wye
New Reactor.TF394335 phases=1 bus1=1795133.4 R=15 X=0 basefreq=60

New transformer.394349 phases=3 xhl=3.64 %r=1.67 windings=2 %loadloss=1.6666666666666667 %noloadloss=0.43333333333333335
~ wdg=1 bus=181396695.1.2.3 kv=13.8 kva=30 tap=1 conn=delta
~ wdg=2 bus=1795161.1.2.3.4 kv=0.22 kva=30 tap=1 conn=wye
New Reactor.TF394349 phases=1 bus1=1795161.4 R=15 X=0 basefreq=60

New transformer.394895 phases=3 xhl=3.64 %r=1.67 windings=2 %loadloss=1.6666666666666667 %noloadloss=0.43333333333333335
~ wdg=1 bus=182600392.1.2.3 kv=13.8 kva=30 tap=1 conn=delta
~ wdg=2 bus=1796610.1.2.3.4 kv=0.22 kva=30 tap=1 conn=wye
New Reactor.TF394895 phases=1 bus1=1796610.4 R=15 X=0 basefreq=60

New transformer.394566 phases=3 xhl=3.64 %r=1.67 windings=2 %loadloss=1.6666666666666667 %noloadloss=0.43333333333333335
~ wdg=1 bus=181432272.1.2.3 kv=13.8 kva=30 tap=1 conn=delta
~ wdg=2 bus=1795651.1.2.3.4 kv=0.22 kva=30 tap=1 conn=wye
New Reactor.TF394566 phases=1 bus1=1795651.4 R=15 X=0 basefreq=60

New transformer.393719 phases=3 xhl=3.7 %r=1.52 windings=2 %loadloss=1.5222222222222221 %noloadloss=0.37777777777777777
~ wdg=1 bus=173046586.1.2.3 kv=13.8 kva=45 tap=1 conn=delta
~ wdg=2 bus=1793901.1.2.3.4 kv=0.22 kva=45 tap=1 conn=wye
New Reactor.TF393719 phases=1 bus1=1793901.4 R=15 X=0 basefreq=60

New transformer.394496 phases=3 xhl=3.48 %r=1.97 windings=2 %loadloss=1.9666666666666666 %noloadloss=0.5
~ wdg=1 bus=181396691.1.2.3 kv=13.8 kva=15 tap=1 conn=delta
~ wdg=2 bus=1795455.1.2.3.4 kv=0.22 kva=15 tap=1 conn=wye
New Reactor.TF394496 phases=1 bus1=1795455.4 R=15 X=0 basefreq=60

New transformer.1113286 phases=3 xhl=3.64 %r=1.67 windings=2 %loadloss=1.6666666666666667 %noloadloss=0.43333333333333335
~ wdg=1 bus=163202907.1.2.3 kv=13.8 kva=30 tap=1 conn=delta
~ wdg=2 bus=145144241.1.2.3.4 kv=0.22 kva=30 tap=1 conn=wye
New Reactor.TF1113286 phases=1 bus1=145144241.4 R=15 X=0 basefreq=60

New transformer.394881 phases=3 xhl=3.48 %r=1.97 windings=2 %loadloss=1.9666666666666666 %noloadloss=0.5
~ wdg=1 bus=181396689.1.2.3 kv=13.8 kva=15 tap=1 conn=delta
~ wdg=2 bus=1796582.1.2.3.4 kv=0.22 kva=15 tap=1 conn=wye
New Reactor.TF394881 phases=1 bus1=1796582.4 R=15 X=0 basefreq=60

New transformer.394580 phases=3 xhl=3.77 %r=1.34 windings=2 %loadloss=1.34 %noloadloss=0.34
~ wdg=1 bus=163100084.1.2.3 kv=13.8 kva=75 tap=1 conn=delta
~ wdg=2 bus=1795679.1.2.3.4 kv=0.22 kva=75 tap=1 conn=wye
New Reactor.TF394580 phases=1 bus1=1795679.4 R=15 X=0 basefreq=60

New transformer.432737 phases=3 xhl=3.7 %r=1.52 windings=2 %loadloss=1.5222222222222221 %noloadloss=0.37777777777777777
~ wdg=1 bus=183476181.1.2.3 kv=13.8 kva=45 tap=1 conn=delta
~ wdg=2 bus=2259310.1.2.3.4 kv=0.22 kva=45 tap=1 conn=wye
New Reactor.TF432737 phases=1 bus1=2259310.4 R=15 X=0 basefreq=60

New transformer.433164 phases=3 xhl=3.7 %r=1.52 windings=2 %loadloss=1.5222222222222221 %noloadloss=0.37777777777777777
~ wdg=1 bus=180289293.1.2.3 kv=13.8 kva=45 tap=1 conn=delta
~ wdg=2 bus=2265064.1.2.3.4 kv=0.22 kva=45 tap=1 conn=wye
New Reactor.TF433164 phases=1 bus1=2265064.4 R=15 X=0 basefreq=60

New transformer.433395 phases=3 xhl=4.9 %r=0.99 windings=2 %loadloss=0.99 %noloadloss=0.23333333333333334
~ wdg=1 bus=126414740.1.2.3 kv=13.8 kva=300 tap=1 conn=delta
~ wdg=2 bus=2265687.1.2.3.4 kv=0.22 kva=300 tap=1 conn=wye
New Reactor.TF433395 phases=1 bus1=2265687.4 R=15 X=0 basefreq=60

New transformer.433318 phases=3 xhl=4.9 %r=0.99 windings=2 %loadloss=0.99 %noloadloss=0.23333333333333334
~ wdg=1 bus=173997617.1.2.3 kv=13.8 kva=300 tap=1 conn=delta
~ wdg=2 bus=2265533.1.2.3.4 kv=0.22 kva=300 tap=1 conn=wye
New Reactor.TF433318 phases=1 bus1=2265533.4 R=15 X=0 basefreq=60

New transformer.433584 phases=3 xhl=4.9 %r=0.99 windings=2 %loadloss=0.99 %noloadloss=0.23333333333333334
~ wdg=1 bus=126415349.1.2.3 kv=13.8 kva=300 tap=1 conn=delta
~ wdg=2 bus=2266338.1.2.3.4 kv=0.22 kva=300 tap=1 conn=wye
New Reactor.TF433584 phases=1 bus1=2266338.4 R=15 X=0 basefreq=60

New transformer.433500 phases=3 xhl=4.9 %r=0.99 windings=2 %loadloss=0.99 %noloadloss=0.23333333333333334
~ wdg=1 bus=165714604.1.2.3 kv=13.8 kva=300 tap=1 conn=delta
~ wdg=2 bus=2265897.1.2.3.4 kv=0.22 kva=300 tap=1 conn=wye
New Reactor.TF433500 phases=1 bus1=2265897.4 R=15 X=0 basefreq=60

New transformer.433304 phases=3 xhl=4.89 %r=1.06 windings=2 %loadloss=1.06 %noloadloss=0.24888888888888888
~ wdg=1 bus=126411506.1.2.3 kv=13.8 kva=225 tap=1 conn=delta
~ wdg=2 bus=2265505.1.2.3.4 kv=0.22 kva=225 tap=1 conn=wye
New Reactor.TF433304 phases=1 bus1=2265505.4 R=15 X=0 basefreq=60

New transformer.435474 phases=3 xhl=3.64 %r=1.67 windings=2 %loadloss=1.6666666666666667 %noloadloss=0.43333333333333335
~ wdg=1 bus=180684543.1.2.3 kv=13.8 kva=30 tap=1 conn=delta
~ wdg=2 bus=2274430.1.2.3.4 kv=0.22 kva=30 tap=1 conn=wye
New Reactor.TF435474 phases=1 bus1=2274430.4 R=15 X=0 basefreq=60

New transformer.1408277 phases=3 xhl=3.7 %r=1.52 windings=2 %loadloss=1.5222222222222221 %noloadloss=0.37777777777777777
~ wdg=1 bus=176347002.1.2.3 kv=13.8 kva=45 tap=1 conn=delta
~ wdg=2 bus=152448275.1.2.3.4 kv=0.22 kva=45 tap=1 conn=wye
New Reactor.TF1408277 phases=1 bus1=152448275.4 R=15 X=0 basefreq=60

New transformer.446296 phases=3 xhl=3.7 %r=1.52 windings=2 %loadloss=1.5222222222222221 %noloadloss=0.37777777777777777
~ wdg=1 bus=180675747.1.2.3 kv=13.8 kva=45 tap=1 conn=delta
~ wdg=2 bus=2375895.1.2.3.4 kv=0.22 kva=45 tap=1 conn=wye
New Reactor.TF446296 phases=1 bus1=2375895.4 R=15 X=0 basefreq=60

New transformer.435992 phases=3 xhl=4.9 %r=0.99 windings=2 %loadloss=1.1647058823529413 %noloadloss=0.27450980392156865
~ wdg=1 bus=173046990.1.2.3 kv=13.8 kva=255 tap=1 conn=delta
~ wdg=2 bus=2281976.1.2.3.4 kv=0.22 kva=255 tap=1 conn=wye
New Reactor.TF435992 phases=1 bus1=2281976.4 R=15 X=0 basefreq=60

New transformer.446450 phases=1 xhl=1.921 xht=1.921 xlt= 1.537 %r=1.6 windings=3 %loadloss=1.6 %noloadloss=0.4
~ wdg=1 bus=126416455.1 kv=7.96 kva=15 tap=1 conn=Wye
~ wdg=2 bus=2376756.1.4 kv=0.24 kva=15 tap=1 conn=wye
~ wdg=3 bus=2376756.4.2 kv=0.24 kva=15 tap=1 conn=wye
New Reactor.TF446450 phases=1 bus1=2376756.4 R=15 X=0 basefreq=60

New transformer.446457 phases=1 xhl=1.921 xht=1.921 xlt= 1.537 %r=1.6 windings=3 %loadloss=1.6 %noloadloss=0.4
~ wdg=1 bus=126416462.1 kv=7.96 kva=15 tap=1 conn=Wye
~ wdg=2 bus=2376812.1.4 kv=0.24 kva=15 tap=1 conn=wye
~ wdg=3 bus=2376812.4.2 kv=0.24 kva=15 tap=1 conn=wye
New Reactor.TF446457 phases=1 bus1=2376812.4 R=15 X=0 basefreq=60

New transformer.440318 phases=1 xhl=2.139 xht=2.139 xlt= 1.712 %r=1.293 windings=3 %loadloss=1.3108108108108107 %noloadloss=0.32432432432432434
~ wdg=1 bus=126412108.1 kv=7.96 kva=37 tap=1 conn=Wye
~ wdg=2 bus=2322037.1.4 kv=0.24 kva=37 tap=1 conn=wye
~ wdg=3 bus=2322037.4.2 kv=0.24 kva=37 tap=1 conn=wye
New Reactor.TF440318 phases=1 bus1=2322037.4 R=15 X=0 basefreq=60

New transformer.443846 phases=1 xhl=1.921 xht=1.921 xlt= 1.537 %r=1.6 windings=3 %loadloss=1.6 %noloadloss=0.4
~ wdg=1 bus=180684545.1 kv=7.96 kva=15 tap=1 conn=Wye
~ wdg=2 bus=2357002.1.4 kv=0.24 kva=15 tap=1 conn=wye
~ wdg=3 bus=2357002.4.2 kv=0.24 kva=15 tap=1 conn=wye
New Reactor.TF443846 phases=1 bus1=2357002.4 R=15 X=0 basefreq=60

New transformer.438589 phases=1 xhl=2.058 xht=2.058 xlt= 1.646 %r=1.42 windings=3 %loadloss=1.42 %noloadloss=0.32
~ wdg=1 bus=151671784.1 kv=7.96 kva=25 tap=1 conn=Wye
~ wdg=2 bus=2304460.1.4 kv=0.24 kva=25 tap=1 conn=wye
~ wdg=3 bus=2304460.4.2 kv=0.24 kva=25 tap=1 conn=wye
New Reactor.TF438589 phases=1 bus1=2304460.4 R=15 X=0 basefreq=60

New transformer.441921 phases=1 xhl=1.921 xht=1.921 xlt= 1.537 %r=1.6 windings=3 %loadloss=1.6 %noloadloss=0.4
~ wdg=1 bus=181425946.2 kv=7.96 kva=15 tap=1 conn=Wye
~ wdg=2 bus=2338067.1.4 kv=0.24 kva=15 tap=1 conn=wye
...