Exemplos/ULAU01/ssdBT_ULAU01.dss
New line.bt1525143 phases=3 bus1=1792375.1.2.4 bus2=1792382.1.2.4 length=0.0005 units=km linecode=BT307_BT307_7_2_1_3
New line.bt1525458 phases=3 bus1=1792991.1.2.4 bus2=1792998.1.2.4 length=0.0005 units=km linecode=BT307_BT307_7_2_1_3
New line.bt1525521 phases=3 bus1=1793117.1.2.4 bus2=1793124.1.2.4 length=0.0005 units=km linecode=BT307_BT307_7_2_1_3
New line.bt1525689 phases=3 bus1=1793439.1.2.4 bus2=1793446.1.2.4 length=0.0005 units=km linecode=BT309_BT309_7_2_1_3
New line.bt1525703 phases=3 bus1=1793467.1.2.4 bus2=1793474.1.2.4 length=0.0005 units=km linecode=BT307_BT307_7_2_1_3
New line.bt1525794 phases=3 bus1=1793635.1.2.4 bus2=1793642.1.2.4 length=0.0005 units=km linecode=BT307_BT307_7_2_1_3
New line.bt1525801 phases=3 bus1=1793649.1.2.4 bus2=1793656.1.2.4 length=0.0005 units=km linecode=BT307_BT307_7_2_1_3
New line.bt1525815 phases=3 bus1=1793677.1.2.4 bus2=1793684.1.2.4 length=0.0005 units=km linecode=BT307_BT307_7_2_1_3
New line.bt1525822 phases=3 bus1=1793691.1.2.4 bus2=1793698.1.2.4 length=0.0005 units=km linecode=BT307_BT307_7_2_1_3
New line.bt1525934 phases=4 bus1=1793901.1.2.3.4 bus2=1793908.1.2.3.4 length=0.0005 units=km linecode=BT307_BT307_7_3_1_4
New line.bt1525962 phases=3 bus1=1793957.1.2.4 bus2=1793964.1.2.4 length=0.0005 units=km linecode=BT307_BT307_7_2_1_3
New line.bt1525990 phases=3 bus1=1794013.1.2.4 bus2=1794020.1.2.4 length=0.0005 units=km linecode=BT307_BT307_7_2_1_3
New line.bt1526081 phases=3 bus1=1794167.1.2.4 bus2=1794174.1.2.4 length=0.0005 units=km linecode=BT307_BT307_7_2_1_3
New line.bt1526102 phases=3 bus1=1794209.1.2.4 bus2=1794216.1.2.4 length=0.0005 units=km linecode=BT307_BT307_7_2_1_3
New line.bt1526123 phases=3 bus1=1794251.1.2.4 bus2=1794258.1.2.4 length=0.0005 units=km linecode=BT508_BT508_7_2_1_3
New line.bt1526151 phases=4 bus1=1794307.1.2.3.4 bus2=1794314.1.2.3.4 length=0.0005 units=km linecode=BT307_BT307_7_3_1_4
New line.bt1526165 phases=3 bus1=1794335.1.2.4 bus2=1794342.1.2.4 length=0.0005 units=km linecode=BT307_BT307_7_2_1_3
New line.bt1526221 phases=3 bus1=1794447.1.2.4 bus2=1794454.1.2.4 length=0.0005 units=km linecode=BT521_BT521_7_2_1_3
New line.bt1526235 phases=3 bus1=1794461.1.2.4 bus2=1794468.1.2.4 length=0.0005 units=km linecode=BT508_BT508_7_2_1_3
New line.bt1526263 phases=3 bus1=1794517.1.2.4 bus2=1794524.1.2.4 length=0.0005 units=km linecode=BT307_BT307_7_2_1_3
New line.bt1526291 phases=3 bus1=1794573.1.2.4 bus2=1794580.1.2.4 length=0.0005 units=km linecode=BT513_BT513_7_2_1_3
New line.bt1526305 phases=3 bus1=1794587.1.2.4 bus2=1794594.1.2.4 length=0.0005 units=km linecode=BT508_BT508_7_2_1_3
New line.bt1526333 phases=3 bus1=1794629.1.2.4 bus2=1794636.1.2.4 length=0.0005 units=km linecode=BT307_BT307_7_2_1_3
New line.bt1526340 phases=3 bus1=1794643.1.2.4 bus2=1794650.1.2.4 length=0.0005 units=km linecode=BT307_BT307_7_2_1_3
New line.bt1526347 phases=3 bus1=1794657.1.2.4 bus2=1794664.1.2.4 length=0.0005 units=km linecode=BT307_BT307_7_2_1_3
New line.bt1526354 phases=3 bus1=1794671.1.2.4 bus2=1794678.1.2.4 length=0.0005 units=km linecode=BT307_BT307_7_2_1_3
New line.bt1526361 phases=3 bus1=1794685.1.2.4 bus2=1794692.1.2.4 length=0.0005 units=km linecode=BT307_BT307_7_2_1_3
New line.bt1526382 phases=3 bus1=1794727.1.2.4 bus2=1794734.1.2.4 length=0.0005 units=km linecode=BT307_BT307_7_2_1_3
New line.bt1526389 phases=3 bus1=1794741.1.2.4 bus2=1794748.1.2.4 length=0.0005 units=km linecode=BT307_BT307_7_2_1_3
New line.bt1526445 phases=3 bus1=1794825.1.2.4 bus2=1794832.1.2.4 length=0.0005 units=km linecode=BT309_BT309_7_2_1_3
New line.bt1526459 phases=3 bus1=1794853.1.2.4 bus2=1794860.1.2.4 length=0.0005 units=km linecode=BT307_BT307_7_2_1_3
New line.bt1526473 phases=4 bus1=1794881.1.2.3.4 bus2=1794888.1.2.3.4 length=0.0005 units=km linecode=BT518_BT518_7_3_1_4
New line.bt1526487 phases=3 bus1=1794909.1.2.4 bus2=1794916.1.2.4 length=0.0005 units=km linecode=BT513_BT513_7_2_1_3
New line.bt1526564 phases=3 bus1=1795035.1.2.4 bus2=1795042.1.2.4 length=0.0005 units=km linecode=BT307_BT307_7_2_1_3
New line.bt1526578 phases=3 bus1=1795063.1.2.4 bus2=1795070.1.2.4 length=0.0005 units=km linecode=BT307_BT307_7_2_1_3
New line.bt1526592 phases=3 bus1=1795091.1.2.4 bus2=1795098.1.2.4 length=0.0005 units=km linecode=BT513_BT513_7_2_1_3
New line.bt1526606 phases=3 bus1=1795119.1.2.4 bus2=1795126.1.2.4 length=0.0005 units=km linecode=BT307_BT307_7_2_1_3
New line.bt1526613 phases=4 bus1=1795133.1.2.3.4 bus2=1795140.1.2.3.4 length=0.0005 units=km linecode=BT307_BT307_7_3_1_4
New line.bt1526627 phases=4 bus1=1795161.1.2.3.4 bus2=1795168.1.2.3.4 length=0.0005 units=km linecode=BT509_BT509_7_3_1_4
New line.bt1526641 phases=3 bus1=1795189.1.2.4 bus2=1795196.1.2.4 length=0.0005 units=km linecode=BT307_BT307_7_2_1_3
New line.bt1526662 phases=3 bus1=1795231.1.2.4 bus2=1795238.1.2.4 length=0.0005 units=km linecode=BT307_BT307_7_2_1_3
New line.bt1526669 phases=4 bus1=1795245.1.2.3.4 bus2=1795252.1.2.3.4 length=0.0005 units=km linecode=BT307_BT307_7_3_1_4
New line.bt1526676 phases=3 bus1=1795259.1.2.4 bus2=1795266.1.2.4 length=0.0005 units=km linecode=BT307_BT307_7_2_1_3
New line.bt1526753 phases=3 bus1=1795399.1.2.4 bus2=1795406.1.2.4 length=0.0005 units=km linecode=BT513_BT513_7_2_1_3
New line.bt1526781 phases=4 bus1=1795455.1.2.3.4 bus2=1795462.1.2.3.4 length=0.0005 units=km linecode=BT307_BT307_7_3_1_4
New line.bt1526788 phases=3 bus1=1795469.1.2.4 bus2=1795476.1.2.4 length=0.0005 units=km linecode=BT307_BT307_7_2_1_3
New line.bt1526795 phases=3 bus1=1795483.1.2.4 bus2=1795490.1.2.4 length=0.0005 units=km linecode=BT307_BT307_7_2_1_3
New line.bt1526802 phases=4 bus1=1795497.1.2.3.4 bus2=1795504.1.2.3.4 length=0.0005 units=km linecode=BT513_BT513_7_3_1_4
New line.bt1526816 phases=3 bus1=1795511.1.2.4 bus2=1795518.1.2.4 length=0.0005 units=km linecode=BT513_BT513_7_2_1_3
New line.bt1526830 phases=3 bus1=1795553.1.2.4 bus2=1795546.1.2.4 length=0.030399000000000002 units=km linecode=BT108_BT108_7_2_1_3
New line.bt1526837 phases=3 bus1=1795560.1.2.4 bus2=1795553.1.2.4 length=0.029532 units=km linecode=BT108_BT108_7_2_1_3
New line.bt1526844 phases=3 bus1=1795567.1.2.4 bus2=1795560.1.2.4 length=0.033998 units=km linecode=BT108_BT108_7_2_1_3
New line.bt1526851 phases=3 bus1=1795539.1.2.4 bus2=1795567.1.2.4 length=0.0005 units=km linecode=BT507_BT507_7_2_1_3
New line.bt1526858 phases=3 bus1=1795567.1.2.4 bus2=1795574.1.2.4 length=0.026388 units=km linecode=BT108_BT108_7_2_1_3
New line.bt1526865 phases=3 bus1=1795574.1.2.4 bus2=1795581.1.2.4 length=0.028986 units=km linecode=BT108_BT108_7_2_1_3
New line.bt1526872 phases=3 bus1=1795581.1.2.4 bus2=1795588.1.2.4 length=0.029684000000000002 units=km linecode=BT108_BT108_7_2_1_3
...