Exemplos/ULAU01/ramlig_ULAU01.dss
New line.ram2433036 phases=2 bus1=2330122.1.4 bus2=4002433036.1.4 length=0.017 units=km linecode=CABBTG01_4_1_2
New line.ram2433057 phases=2 bus1=1795938.1.4 bus2=4002433057.1.4 length=0.017 units=km linecode=CABBTG01_4_1_2
New line.ram2433064 phases=2 bus1=136212311.2.4 bus2=4002433064.2.4 length=0.017 units=km linecode=CABBTG02_4_1_2
New line.ram2433071 phases=3 bus1=1795945.1.2.4 bus2=4002433071.1.2.4 length=0.017 units=km linecode=CABBTG05_4_2_3
New line.ram2433078 phases=2 bus1=1795952.1.4 bus2=4002433078.1.4 length=0.017 units=km linecode=CABBTG01_4_1_2
New line.ram2433085 phases=3 bus1=1795959.1.2.4 bus2=4002433085.1.2.4 length=0.017 units=km linecode=CABBTG05_4_2_3
New line.ram2433092 phases=3 bus1=1795959.1.2.4 bus2=4002433092.1.2.4 length=0.017 units=km linecode=CABBTG05_4_2_3
New line.ram2433099 phases=2 bus1=1795959.1.4 bus2=4002433099.1.4 length=0.017 units=km linecode=CABBTG01_4_1_2
New line.ram2433106 phases=3 bus1=136211926.1.2.4 bus2=4002433106.1.2.4 length=0.017 units=km linecode=CABBTG05_4_2_3
New line.ram2433113 phases=3 bus1=136212290.1.2.4 bus2=4002433113.1.2.4 length=0.017 units=km linecode=CABBTG05_4_2_3
New line.ram2433141 phases=2 bus1=1796036.2.4 bus2=4002433141.2.4 length=0.017 units=km linecode=CABBTG01_4_1_2
New line.ram2433148 phases=2 bus1=1796036.1.4 bus2=4002433148.1.4 length=0.017 units=km linecode=CABBTG01_4_1_2
New line.ram2433155 phases=2 bus1=1796036.1.4 bus2=4002433155.1.4 length=0.017 units=km linecode=CABBTG01_4_1_2
New line.ram2433162 phases=3 bus1=1796036.1.2.4 bus2=4002433162.1.2.4 length=0.017 units=km linecode=CABBTG05_4_2_3
New line.ram2433169 phases=2 bus1=1796043.1.4 bus2=4002433169.1.4 length=0.017 units=km linecode=CABBTG01_4_1_2
New line.ram2433176 phases=2 bus1=1796043.2.4 bus2=4002433176.2.4 length=0.017 units=km linecode=CABBTG01_4_1_2
New line.ram2433183 phases=3 bus1=1796057.1.2.4 bus2=4002433183.1.2.4 length=0.017 units=km linecode=CABBTG05_4_2_3
New line.ram2433190 phases=2 bus1=1796057.2.4 bus2=4002433190.2.4 length=0.017 units=km linecode=CABBTG01_4_1_2
New line.ram2433197 phases=2 bus1=1796057.1.4 bus2=4002433197.1.4 length=0.017 units=km linecode=CABBTG01_4_1_2
New line.ram2433204 phases=3 bus1=1796071.1.2.4 bus2=4002433204.1.2.4 length=0.017 units=km linecode=CABBTG05_4_2_3
New line.ram2433211 phases=3 bus1=2330101.1.2.4 bus2=4002433211.1.2.4 length=0.017 units=km linecode=CABBTG05_4_2_3
New line.ram2433218 phases=2 bus1=1796085.2.4 bus2=4002433218.2.4 length=0.017 units=km linecode=CABBTG01_4_1_2
New line.ram2433225 phases=3 bus1=1796085.1.2.4 bus2=4002433225.1.2.4 length=0.017 units=km linecode=CABBTG05_4_2_3
New line.ram2433232 phases=3 bus1=1796092.1.2.4 bus2=4002433232.1.2.4 length=0.017 units=km linecode=CABBTG05_4_2_3
New line.ram2433239 phases=2 bus1=1796099.2.4 bus2=4002433239.2.4 length=0.017 units=km linecode=CABBTG01_4_1_2
New line.ram2433246 phases=2 bus1=1796099.2.4 bus2=4002433246.2.4 length=0.017 units=km linecode=CABBTG01_4_1_2
New line.ram2433253 phases=3 bus1=1796127.1.2.4 bus2=4002433253.1.2.4 length=0.017 units=km linecode=CABBTG05_4_2_3
New line.ram2433260 phases=2 bus1=1796127.2.4 bus2=4002433260.2.4 length=0.017 units=km linecode=CABBTG01_4_1_2
New line.ram2433267 phases=2 bus1=1796127.1.4 bus2=4002433267.1.4 length=0.017 units=km linecode=CABBTG01_4_1_2
New line.ram2433484 phases=4 bus1=1796617.1.2.3.4 bus2=4002433484.1.2.3.4 length=0.017 units=km linecode=CABBTG06_4_3_4
New line.ram2431209 phases=3 bus1=1792382.1.2.4 bus2=4002431209.1.2.4 length=0.017 units=km linecode=CABBTG05_4_2_3
New line.ram2431517 phases=3 bus1=1792998.1.2.4 bus2=4002431517.1.2.4 length=0.017 units=km linecode=CABBTG05_4_2_3
New line.ram2431580 phases=3 bus1=1793124.1.2.4 bus2=4002431580.1.2.4 length=0.017 units=km linecode=CABBTG05_4_2_3
New line.ram2431741 phases=3 bus1=1793446.1.2.4 bus2=4002431741.1.2.4 length=0.017 units=km linecode=CABBTG05_4_2_3
New line.ram2431755 phases=3 bus1=1793474.1.2.4 bus2=4002431755.1.2.4 length=0.017 units=km linecode=CABBTG05_4_2_3
New line.ram2431832 phases=3 bus1=1793642.1.2.4 bus2=4002431832.1.2.4 length=0.017 units=km linecode=CABBTG05_4_2_3
New line.ram2431839 phases=3 bus1=1793656.1.2.4 bus2=4002431839.1.2.4 length=0.017 units=km linecode=CABBTG05_4_2_3
New line.ram2431853 phases=3 bus1=1793684.1.2.4 bus2=4002431853.1.2.4 length=0.017 units=km linecode=CABBTG05_4_2_3
New line.ram2431860 phases=3 bus1=1793698.1.2.4 bus2=4002431860.1.2.4 length=0.017 units=km linecode=CABBTG05_4_2_3
New line.ram2431965 phases=4 bus1=1793908.1.2.3.4 bus2=4002431965.1.2.3.4 length=0.017 units=km linecode=CABBTG07_4_3_4
New line.ram2431993 phases=3 bus1=1793964.1.2.4 bus2=4002431993.1.2.4 length=0.017 units=km linecode=CABBTG05_4_2_3
New line.ram2432021 phases=3 bus1=1794020.1.2.4 bus2=4002432021.1.2.4 length=0.017 units=km linecode=CABBTG05_4_2_3
New line.ram2432098 phases=3 bus1=1794174.1.2.4 bus2=4002432098.1.2.4 length=0.017 units=km linecode=CABBTG05_4_2_3
...